Carmustine
  MOE2013           2D

 12 11  0  0  0  0  0  0  0  0999 V2000
   -1.2990    2.2500    0.0000 C   0  0  0  0  0  0  0  0  0  0  0  0
    0.0000    1.5000    0.0000 C   0  0  0  0  0  0  0  0  0  0  0  0
    0.0000    0.0000    0.0000 Cl  0  0  0  0  0  0  0  0  0  0  0  0
   -1.2990    3.7500    0.0000 N   0  0  0  0  0  0  0  0  0  0  0  0
   -2.5980    4.5000    0.0000 C   0  0  0  0  0  0  0  0  0  0  0  0
   -3.8970    3.7500    0.0000 O   0  0  0  0  0  0  0  0  0  0  0  0
   -2.5980    6.0000    0.0000 N   0  0  0  0  0  0  0  0  0  0  0  0
   -3.8970    6.7500    0.0000 C   0  0  0  0  0  0  0  0  0  0  0  0
   -3.8970    8.2500    0.0000 C   0  0  0  0  0  0  0  0  0  0  0  0
   -5.1960    9.0000    0.0000 Cl  0  0  0  0  0  0  0  0  0  0  0  0
   -1.2990    6.7500    0.0000 N   0  0  0  0  0  0  0  0  0  0  0  0
   -1.2990    8.2500    0.0000 O   0  0  0  0  0  0  0  0  0  0  0  0
  1  2  1  0  0  0  0
  1  4  1  0  0  0  0
  2  3  1  0  0  0  0
  4  5  1  0  0  0  0
  5  6  2  0  0  0  0
  5  7  1  0  0  0  0
  7  8  1  0  0  0  0
  7 11  1  0  0  0  0
  8  9  1  0  0  0  0
  9 10  1  0  0  0  0
 11 12  2  0  0  0  0
M  END
>  <n>
1

>  <SMILES>
ClCCN(N=O)C(=O)NCCCl

>  <IC50>
97.21

>  <Class>
0

>  <NAME>
1,3-BIS( 2-CHLOROETHYL)-N-NITROSOUREA

>  <INCHI_KEY>
DLGOEMSEDOSKAD-UHFFFAOYSA-N

>  <Reference>
Mitigating, Dawson

$$$$
mol2
  MOE2013           2D

 14 14  0  0  0  0  0  0  0  0999 V2000
    3.8970   -6.7500    0.0000 C   0  0  0  0  0  0  0  0  0  0  0  0
    3.8970   -5.2500    0.0000 C   0  0  0  0  0  0  0  0  0  0  0  0
    2.5980   -4.5000    0.0000 C   0  0  0  0  0  0  0  0  0  0  0  0
    2.5980   -3.0000    0.0000 C   0  0  0  0  0  0  0  0  0  0  0  0
    1.2990   -2.2500    0.0000 O   0  0  0  0  0  0  0  0  0  0  0  0
    1.2990   -0.7500    0.0000 C   0  0  0  0  0  0  0  0  0  0  0  0
    2.5980    0.0000    0.0000 O   0  0  0  0  0  0  0  0  0  0  0  0
    0.0000    0.0000    0.0000 C   0  0  0  0  0  0  0  0  0  0  0  0
    0.0000    1.5000    0.0000 C   0  0  0  0  0  0  0  0  0  0  0  0
   -1.2990    2.2500    0.0000 C   0  0  0  0  0  0  0  0  0  0  0  0
   -2.5980    1.5000    0.0000 C   0  0  0  0  0  0  0  0  0  0  0  0
   -2.5980    0.0000    0.0000 C   0  0  0  0  0  0  0  0  0  0  0  0
   -1.2990   -0.7500    0.0000 C   0  0  0  0  0  0  0  0  0  0  0  0
   -3.8970    2.2500    0.0000 N   0  0  0  0  0  0  0  0  0  0  0  0
  1  2  1  0  0  0  0
  2  3  1  0  0  0  0
  3  4  1  0  0  0  0
  4  5  1  0  0  0  0
  5  6  1  0  0  0  0
  6  7  2  0  0  0  0
  6  8  1  0  0  0  0
  8  9  1  0  0  0  0
  8 13  2  0  0  0  0
  9 10  2  0  0  0  0
 10 11  1  0  0  0  0
 11 12  2  0  0  0  0
 11 14  1  0  0  0  0
 12 13  1  0  0  0  0
M  END
>  <n>
2

>  <SMILES>
O(C(=O)c1ccc(N)cc1)CCCC

>  <IC50>
181.1

>  <Class>
0

>  <NAME>
4-AMINO BUTYLBENZOATE

>  <INCHI_KEY>
IUWVALYLNVXWKX-UHFFFAOYSA-N

>  <Reference>
Mitigating the inhibition of human Bile Salt Export Pump by drugs_ opportunities provided by physicochemical property modulation,  in-silico modeling and structural modification_SI

$$$$
mol3
  MOE2013           2D

 10 10  0  0  0  0  0  0  0  0999 V2000
    1.2990   -0.7500    0.0000 C   0  0  0  0  0  0  0  0  0  0  0  0
    0.0000    0.0000    0.0000 C   0  0  0  0  0  0  0  0  0  0  0  0
    0.0000    1.5000    0.0000 C   0  0  0  0  0  0  0  0  0  0  0  0
   -1.2990    2.2500    0.0000 C   0  0  0  0  0  0  0  0  0  0  0  0
   -2.5980    1.5000    0.0000 C   0  0  0  0  0  0  0  0  0  0  0  0
   -2.5980    0.0000    0.0000 C   0  0  0  0  0  0  0  0  0  0  0  0
   -1.2990   -0.7500    0.0000 C   0  0  0  0  0  0  0  0  0  0  0  0
   -1.2990   -2.2500    0.0000 Cl  0  0  0  0  0  0  0  0  0  0  0  0
   -3.8970   -0.7500    0.0000 C   0  0  0  0  0  0  0  0  0  0  0  0
   -1.2990    3.7500    0.0000 O   0  0  0  0  0  0  0  0  0  0  0  0
  1  2  1  0  0  0  0
  2  3  1  0  0  0  0
  2  7  2  0  0  0  0
  3  4  2  0  0  0  0
  4  5  1  0  0  0  0
  4 10  1  0  0  0  0
  5  6  2  0  0  0  0
  6  7  1  0  0  0  0
  6  9  1  0  0  0  0
  7  8  1  0  0  0  0
M  END
>  <n>
3

>  <SMILES>
Clc1c(cc(O)cc1C)C

>  <IC50>
129.9

>  <Class>
0

>  <NAME>
4-CHLORO-3,5- DIMETHYLPHENOL

>  <INCHI_KEY>
OSDLLIBGSJNGJE-UHFFFAOYSA-N

>  <Reference>
Mitigating the inhibition of human Bile Salt Export Pump by drugs_ opportunities provided by physicochemical property modulation,  in-silico modeling and structural modification_SI

$$$$
mol4
  MOE2013           2D

  9  9  0  0  0  0  0  0  0  0999 V2000
    0.0000    0.0000    0.0000 C   0  0  0  0  0  0  0  0  0  0  0  0
    0.0000    1.5000    0.0000 C   0  0  0  0  0  0  0  0  0  0  0  0
   -1.2990    2.2500    0.0000 C   0  0  0  0  0  0  0  0  0  0  0  0
   -1.2990    3.7500    0.0000 O   0  0  0  0  0  0  0  0  0  0  0  0
   -2.5980    1.5000    0.0000 N   0  0  0  0  0  0  0  0  0  0  0  0
   -2.5980    0.0000    0.0000 C   0  0  0  0  0  0  0  0  0  0  0  0
   -3.8970   -0.7500    0.0000 O   0  0  0  0  0  0  0  0  0  0  0  0
   -1.2990   -0.7500    0.0000 N   0  0  0  0  0  0  0  0  0  0  0  0
    1.2990    2.2500    0.0000 F   0  0  0  0  0  0  0  0  0  0  0  0
  1  2  2  0  0  0  0
  1  8  1  0  0  0  0
  2  3  1  0  0  0  0
  2  9  1  0  0  0  0
  3  4  2  0  0  0  0
  3  5  1  0  0  0  0
  5  6  1  0  0  0  0
  6  7  2  0  0  0  0
  6  8  1  0  0  0  0
M  END
>  <n>
4

>  <SMILES>
FC1=CNC(=O)NC1=O

>  <IC50>
>1000

>  <Class>
0

>  <NAME>
5-FLUOROURACIL

>  <INCHI_KEY>
GHASVSINZRGABV-UHFFFAOYSA-N

>  <Reference>
Mitigating the inhibition of human Bile Salt Export Pump by drugs_ opportunities provided by physicochemical property modulation,  in-silico modeling and structural modification_SI

$$$$
mol5
  MOE2013           2D

 11 12  0  0  0  0  0  0  0  0999 V2000
    0.0000    0.0000    0.0000 C   0  0  0  0  0  0  0  0  0  0  0  0
    0.0000    1.5000    0.0000 C   0  0  0  0  0  0  0  0  0  0  0  0
   -1.2990    2.2500    0.0000 C   0  0  0  0  0  0  0  0  0  0  0  0
   -1.2990    3.7500    0.0000 C   0  0  0  0  0  0  0  0  0  0  0  0
   -2.5980    4.5000    0.0000 C   0  0  0  0  0  0  0  0  0  0  0  0
   -3.8970    3.7500    0.0000 C   0  0  0  0  0  0  0  0  0  0  0  0
   -3.8970    2.2500    0.0000 N   0  0  0  0  0  0  0  0  0  0  0  0
   -2.5980    1.5000    0.0000 C   0  0  0  0  0  0  0  0  0  0  0  0
   -2.5980    0.0000    0.0000 C   0  0  0  0  0  0  0  0  0  0  0  0
   -1.2990   -0.7500    0.0000 C   0  0  0  0  0  0  0  0  0  0  0  0
   -3.8970   -0.7500    0.0000 O   0  0  0  0  0  0  0  0  0  0  0  0
  1  2  1  0  0  0  0
  1 10  2  0  0  0  0
  2  3  2  0  0  0  0
  3  4  1  0  0  0  0
  3  8  1  0  0  0  0
  4  5  2  0  0  0  0
  5  6  1  0  0  0  0
  6  7  2  0  0  0  0
  7  8  1  0  0  0  0
  8  9  2  0  0  0  0
  9 10  1  0  0  0  0
  9 11  1  0  0  0  0
M  END
>  <n>
5

>  <SMILES>
Oc1c2ncccc2ccc1

>  <IC50>
>1000

>  <Class>
0

>  <NAME>
8-HYDROXY QUINOLINE

>  <INCHI_KEY>
MCJGNVYPOGVAJF-UHFFFAOYSA-N

>  <Reference>
Mitigating the inhibition of human Bile Salt Export Pump by drugs_ opportunities provided by physicochemical property modulation,  in-silico modeling and structural modification_SI

$$$$
ACEPROMAZINE
  MOE2013           2D

 23 25  0  0  1  0  0  0  0  0999 V2000
    5.1960    1.5000    0.0000 C   0  0  0  0  0  0  0  0  0  0  0  0
    3.8970    2.2500    0.0000 C   0  0  0  0  0  0  0  0  0  0  0  0
    3.8970    3.7500    0.0000 O   0  0  0  0  0  0  0  0  0  0  0  0
    2.5980    1.5000    0.0000 C   0  0  0  0  0  0  0  0  0  0  0  0
    2.5980    0.0000    0.0000 C   0  0  0  0  0  0  0  0  0  0  0  0
    1.2990   -0.7500    0.0000 C   0  0  0  0  0  0  0  0  0  0  0  0
    0.0000    0.0000    0.0000 C   0  0  0  0  0  0  0  0  0  0  0  0
    0.0000    1.5000    0.0000 C   0  0  0  0  0  0  0  0  0  0  0  0
    1.2990    2.2500    0.0000 C   0  0  0  0  0  0  0  0  0  0  0  0
   -1.2990    2.2500    0.0000 N   0  0  3  0  0  0  0  0  0  0  0  0
   -2.5980    1.5000    0.0000 C   0  0  0  0  0  0  0  0  0  0  0  0
   -3.8970    2.2500    0.0000 C   0  0  0  0  0  0  0  0  0  0  0  0
   -5.1960    1.5000    0.0000 C   0  0  0  0  0  0  0  0  0  0  0  0
   -5.1960    0.0000    0.0000 C   0  0  0  0  0  0  0  0  0  0  0  0
   -3.8970   -0.7500    0.0000 C   0  0  0  0  0  0  0  0  0  0  0  0
   -2.5980    0.0000    0.0000 C   0  0  0  0  0  0  0  0  0  0  0  0
   -1.2990   -0.7500    0.0000 S   0  0  0  0  0  0  0  0  0  0  0  0
   -1.2990    3.7500    0.0000 C   0  0  0  0  0  0  0  0  0  0  0  0
   -2.5980    4.5000    0.0000 C   0  0  0  0  0  0  0  0  0  0  0  0
   -2.5980    6.0000    0.0000 C   0  0  0  0  0  0  0  0  0  0  0  0
   -3.8970    6.7500    0.0000 N   0  0  0  0  0  0  0  0  0  0  0  0
   -3.8970    8.2500    0.0000 C   0  0  0  0  0  0  0  0  0  0  0  0
   -5.1960    6.0000    0.0000 C   0  0  0  0  0  0  0  0  0  0  0  0
  1  2  1  0  0  0  0
  2  3  2  0  0  0  0
  2  4  1  0  0  0  0
  4  5  1  0  0  0  0
  4  9  2  0  0  0  0
  5  6  2  0  0  0  0
  6  7  1  0  0  0  0
  7  8  2  0  0  0  0
  7 17  1  0  0  0  0
  8  9  1  0  0  0  0
  8 10  1  0  0  0  0
 10 11  1  0  0  0  0
 10 18  1  0  0  0  0
 11 12  1  0  0  0  0
 11 16  2  0  0  0  0
 12 13  2  0  0  0  0
 13 14  1  0  0  0  0
 14 15  2  0  0  0  0
 15 16  1  0  0  0  0
 16 17  1  0  0  0  0
 18 19  1  0  0  0  0
 19 20  1  0  0  0  0
 20 21  1  0  0  0  0
 21 22  1  0  0  0  0
 21 23  1  0  0  0  0
M  END
>  <n>
7

>  <SMILES>
S1c2c(N(c3c1cccc3)CCCN(C)C)cc(cc2)C(=O)C

>  <IC50>
111.6

>  <Class>
0

>  <NAME>
ACEPROMAZINE

>  <INCHI_KEY>
NOSIYYJFMPDDSA-UHFFFAOYSA-N

>  <Reference>
Mitigating the inhibition of human Bile Salt Export Pump by drugs_ opportunities provided by physicochemical property modulation,  in-silico modeling and structural modification_SI

$$$$
ACETAMINOPHEN
  MOE2013           2D

 11 11  0  0  0  0  0  0  0  0999 V2000
    2.5980   -3.0000    0.0000 C   0  0  0  0  0  0  0  0  0  0  0  0
    1.2990   -2.2500    0.0000 C   0  0  0  0  0  0  0  0  0  0  0  0
    0.0000   -3.0000    0.0000 O   0  0  0  0  0  0  0  0  0  0  0  0
    1.2990   -0.7500    0.0000 N   0  0  0  0  0  0  0  0  0  0  0  0
    0.0000    0.0000    0.0000 C   0  0  0  0  0  0  0  0  0  0  0  0
    0.0000    1.5000    0.0000 C   0  0  0  0  0  0  0  0  0  0  0  0
   -1.2990    2.2500    0.0000 C   0  0  0  0  0  0  0  0  0  0  0  0
   -2.5980    1.5000    0.0000 C   0  0  0  0  0  0  0  0  0  0  0  0
   -2.5980    0.0000    0.0000 C   0  0  0  0  0  0  0  0  0  0  0  0
   -1.2990   -0.7500    0.0000 C   0  0  0  0  0  0  0  0  0  0  0  0
   -3.8970    2.2500    0.0000 O   0  0  0  0  0  0  0  0  0  0  0  0
  1  2  1  0  0  0  0
  2  3  2  0  0  0  0
  2  4  1  0  0  0  0
  4  5  1  0  0  0  0
  5  6  1  0  0  0  0
  5 10  2  0  0  0  0
  6  7  2  0  0  0  0
  7  8  1  0  0  0  0
  8  9  2  0  0  0  0
  8 11  1  0  0  0  0
  9 10  1  0  0  0  0
M  END
>  <n>
8

>  <SMILES>
Oc1ccc(NC(=O)C)cc1

>  <IC50>
>1000

>  <Class>
0

>  <NAME>
ACETAMINOPHEN

>  <INCHI_KEY>
RZVAJINKPMORJF-UHFFFAOYSA-N

>  <Reference>
Mitigating, Dawson

$$$$
ACETANILIDE
  MOE2013           2D

 10 10  0  0  0  0  0  0  0  0999 V2000
    2.5980   -3.0000    0.0000 C   0  0  0  0  0  0  0  0  0  0  0  0
    1.2990   -2.2500    0.0000 C   0  0  0  0  0  0  0  0  0  0  0  0
    0.0000   -3.0000    0.0000 O   0  0  0  0  0  0  0  0  0  0  0  0
    1.2990   -0.7500    0.0000 N   0  0  0  0  0  0  0  0  0  0  0  0
    0.0000    0.0000    0.0000 C   0  0  0  0  0  0  0  0  0  0  0  0
    0.0000    1.5000    0.0000 C   0  0  0  0  0  0  0  0  0  0  0  0
   -1.2990    2.2500    0.0000 C   0  0  0  0  0  0  0  0  0  0  0  0
   -2.5980    1.5000    0.0000 C   0  0  0  0  0  0  0  0  0  0  0  0
   -2.5980    0.0000    0.0000 C   0  0  0  0  0  0  0  0  0  0  0  0
   -1.2990   -0.7500    0.0000 C   0  0  0  0  0  0  0  0  0  0  0  0
  1  2  1  0  0  0  0
  2  3  2  0  0  0  0
  2  4  1  0  0  0  0
  4  5  1  0  0  0  0
  5  6  1  0  0  0  0
  5 10  2  0  0  0  0
  6  7  2  0  0  0  0
  7  8  1  0  0  0  0
  8  9  2  0  0  0  0
  9 10  1  0  0  0  0
M  END
>  <n>
9

>  <SMILES>
O=C(Nc1ccccc1)C

>  <IC50>
>1000

>  <Class>
0

>  <NAME>
ACETANILIDE

>  <INCHI_KEY>
FZERHIULMFGESH-UHFFFAOYSA-N

>  <Reference>
Mitigating the inhibition of human Bile Salt Export Pump by drugs_ opportunities provided by physicochemical property modulation,  in-silico modeling and structural modification_SI

$$$$
ACETYL_CHOLINE
  MOE2013           2D

 10  9  0  0  0  0  0  0  0  0999 V2000
    0.0000    0.0000    0.0000 C   0  0  0  0  0  0  0  0  0  0  0  0
    0.0000    1.5000    0.0000 C   0  0  0  0  0  0  0  0  0  0  0  0
    1.2990    2.2500    0.0000 O   0  0  0  0  0  0  0  0  0  0  0  0
   -1.2990    2.2500    0.0000 O   0  0  0  0  0  0  0  0  0  0  0  0
   -1.2990    3.7500    0.0000 C   0  0  0  0  0  0  0  0  0  0  0  0
   -2.5980    4.5000    0.0000 C   0  0  0  0  0  0  0  0  0  0  0  0
   -2.5980    6.0000    0.0000 N   0  3  0  0  0  0  0  0  0  0  0  0
   -3.8970    6.7500    0.0000 C   0  0  0  0  0  0  0  0  0  0  0  0
   -1.1210    5.7400    0.0000 C   0  0  0  0  0  0  0  0  0  0  0  0
   -2.0850    7.4100    0.0000 C   0  0  0  0  0  0  0  0  0  0  0  0
  1  2  1  0  0  0  0
  2  3  2  0  0  0  0
  2  4  1  0  0  0  0
  4  5  1  0  0  0  0
  5  6  1  0  0  0  0
  6  7  1  0  0  0  0
  7  8  1  0  0  0  0
  7  9  1  0  0  0  0
  7 10  1  0  0  0  0
M  CHG  1   7   1
M  END
>  <n>
11

>  <SMILES>
O(C(=O)C)CC[N+](C)(C)C

>  <IC50>
>1000

>  <Class>
0

>  <NAME>
ACETYL CHOLINE

>  <INCHI_KEY>
OIPILFWXSMYKGL-UHFFFAOYSA-N

>  <Reference>
Mitigating the inhibition of human Bile Salt Export Pump by drugs_ opportunities provided by physicochemical property modulation,  in-silico modeling and structural modification_SI

$$$$
ACNECLEAR
  MOE2013           2D

 25 27  0  0  1  0  0  0  0  0999 V2000
    8.9650   -1.6960    0.0000 C   0  0  0  0  0  0  0  0  0  0  0  0
    7.7520   -0.8150    0.0000 C   0  0  0  0  0  0  0  0  0  0  0  0
    6.3810   -1.4250    0.0000 C   0  0  0  0  0  0  0  0  0  0  0  0
    6.2240   -2.9170    0.0000 C   0  0  0  0  0  0  0  0  0  0  0  0
    7.4380   -3.7980    0.0000 C   0  0  0  0  0  0  0  0  0  0  0  0
    8.8080   -3.1880    0.0000 C   0  0  0  0  0  0  0  0  0  0  0  0
   10.0220   -4.0700    0.0000 Cl  0  0  0  0  0  0  0  0  0  0  0  0
    4.8540   -3.5270    0.0000 Cl  0  0  0  0  0  0  0  0  0  0  0  0
    5.1680   -0.5430    0.0000 C   0  0  0  0  0  0  0  0  0  0  0  0
    3.7970   -1.1530    0.0000 O   0  0  0  0  0  0  0  0  0  0  0  0
    2.5840   -0.2720    0.0000 C   0  0  3  0  0  0  0  0  0  0  0  0
    1.2140   -0.8820    0.0000 C   0  0  0  0  0  0  0  0  0  0  0  0
    0.0000    0.0000    0.0000 N   0  0  0  0  0  0  0  0  0  0  0  0
    0.0000    1.5000    0.0000 C   0  0  0  0  0  0  0  0  0  0  0  0
   -1.4270    1.9640    0.0000 C   0  0  0  0  0  0  0  0  0  0  0  0
   -2.3080    0.7500    0.0000 N   0  0  0  0  0  0  0  0  0  0  0  0
   -1.4270   -0.4640    0.0000 C   0  0  0  0  0  0  0  0  0  0  0  0
    2.7410    1.2200    0.0000 C   0  0  0  0  0  0  0  0  0  0  0  0
    4.1110    1.8300    0.0000 C   0  0  0  0  0  0  0  0  0  0  0  0
    4.2680    3.3220    0.0000 C   0  0  0  0  0  0  0  0  0  0  0  0
    3.0540    4.2040    0.0000 C   0  0  0  0  0  0  0  0  0  0  0  0
    1.6840    3.5940    0.0000 C   0  0  0  0  0  0  0  0  0  0  0  0
    1.5270    2.1020    0.0000 C   0  0  0  0  0  0  0  0  0  0  0  0
    0.1570    1.4920    0.0000 Cl  0  0  0  0  0  0  0  0  0  0  0  0
    3.2110    5.6960    0.0000 Cl  0  0  0  0  0  0  0  0  0  0  0  0
  1  2  1  0  0  0  0
  1  6  2  0  0  0  0
  2  3  2  0  0  0  0
  3  4  1  0  0  0  0
  3  9  1  0  0  0  0
  4  5  2  0  0  0  0
  4  8  1  0  0  0  0
  5  6  1  0  0  0  0
  6  7  1  0  0  0  0
  9 10  1  0  0  0  0
 10 11  1  0  0  0  0
 11 12  1  0  0  0  0
 11 18  1  0  0  0  0
 12 13  1  0  0  0  0
 13 14  1  0  0  0  0
 13 17  1  0  0  0  0
 14 15  2  0  0  0  0
 15 16  1  0  0  0  0
 16 17  2  0  0  0  0
 18 19  1  0  0  0  0
 18 23  2  0  0  0  0
 19 20  2  0  0  0  0
 20 21  1  0  0  0  0
 21 22  2  0  0  0  0
 21 25  1  0  0  0  0
 22 23  1  0  0  0  0
 23 24  1  0  0  0  0
M  END
>  <n>
12

>  <SMILES>
Clc1cc(Cl)ccc1C(OCc1ccc(Cl)cc1Cl)Cn1ccnc1

>  <IC50>
<10

>  <Class>
1

>  <NAME>
ACNECLEAR

>  <INCHI_KEY>
BYBLEWFAAKGYCD-UHFFFAOYSA-N

>  <Reference>
Mitigating the inhibition of human Bile Salt Export Pump by drugs_ opportunities provided by physicochemical property modulation,  in-silico modeling and structural modification_SI

$$$$
ACTARIT
  MOE2013           2D

 14 14  0  0  0  0  0  0  0  0999 V2000
    2.5980   -3.0000    0.0000 C   0  0  0  0  0  0  0  0  0  0  0  0
    1.2990   -2.2500    0.0000 C   0  0  0  0  0  0  0  0  0  0  0  0
    0.0000   -3.0000    0.0000 O   0  0  0  0  0  0  0  0  0  0  0  0
    1.2990   -0.7500    0.0000 N   0  0  0  0  0  0  0  0  0  0  0  0
    0.0000    0.0000    0.0000 C   0  0  0  0  0  0  0  0  0  0  0  0
    0.0000    1.5000    0.0000 C   0  0  0  0  0  0  0  0  0  0  0  0
   -1.2990    2.2500    0.0000 C   0  0  0  0  0  0  0  0  0  0  0  0
   -2.5980    1.5000    0.0000 C   0  0  0  0  0  0  0  0  0  0  0  0
   -2.5980    0.0000    0.0000 C   0  0  0  0  0  0  0  0  0  0  0  0
   -1.2990   -0.7500    0.0000 C   0  0  0  0  0  0  0  0  0  0  0  0
   -3.8970    2.2500    0.0000 C   0  0  0  0  0  0  0  0  0  0  0  0
   -3.8970    3.7500    0.0000 C   0  0  0  0  0  0  0  0  0  0  0  0
   -5.1960    4.5000    0.0000 O   0  0  0  0  0  0  0  0  0  0  0  0
   -2.5980    4.5000    0.0000 O   0  0  0  0  0  0  0  0  0  0  0  0
  1  2  1  0  0  0  0
  2  3  2  0  0  0  0
  2  4  1  0  0  0  0
  4  5  1  0  0  0  0
  5  6  1  0  0  0  0
  5 10  2  0  0  0  0
  6  7  2  0  0  0  0
  7  8  1  0  0  0  0
  8  9  2  0  0  0  0
  8 11  1  0  0  0  0
  9 10  1  0  0  0  0
 11 12  1  0  0  0  0
 12 13  2  0  0  0  0
 12 14  1  0  0  0  0
M  END
>  <n>
13

>  <SMILES>
OC(=O)Cc1ccc(NC(=O)C)cc1

>  <IC50>
>1000

>  <Class>
0

>  <NAME>
ACTARIT

>  <INCHI_KEY>
MROJXXOCABQVEF-UHFFFAOYSA-N

>  <Reference>
Mitigating the inhibition of human Bile Salt Export Pump by drugs_ opportunities provided by physicochemical property modulation,  in-silico modeling and structural modification_SI

$$$$
ACYCLOVIR
  MOE2013           2D

 16 17  0  0  0  0  0  0  0  0999 V2000
    0.0000    0.0000    0.0000 C   0  0  0  0  0  0  0  0  0  0  0  0
    0.0000    1.5000    0.0000 N   0  0  0  0  0  0  0  0  0  0  0  0
   -1.4270    1.9640    0.0000 C   0  0  0  0  0  0  0  0  0  0  0  0
   -2.0370    3.3340    0.0000 C   0  0  0  0  0  0  0  0  0  0  0  0
   -1.1550    4.5470    0.0000 O   0  0  0  0  0  0  0  0  0  0  0  0
   -3.5280    3.4910    0.0000 N   0  0  0  0  0  0  0  0  0  0  0  0
   -4.4100    2.2770    0.0000 C   0  0  0  0  0  0  0  0  0  0  0  0
   -3.8000    0.9070    0.0000 N   0  0  0  0  0  0  0  0  0  0  0  0
   -2.3080    0.7500    0.0000 C   0  0  0  0  0  0  0  0  0  0  0  0
   -1.4270   -0.4640    0.0000 N   0  0  0  0  0  0  0  0  0  0  0  0
   -1.8900   -1.8900    0.0000 C   0  0  0  0  0  0  0  0  0  0  0  0
   -0.8860   -3.0050    0.0000 O   0  0  0  0  0  0  0  0  0  0  0  0
   -1.3500   -4.4310    0.0000 C   0  0  0  0  0  0  0  0  0  0  0  0
   -0.3460   -5.5460    0.0000 C   0  0  0  0  0  0  0  0  0  0  0  0
   -0.8100   -6.9730    0.0000 O   0  0  0  0  0  0  0  0  0  0  0  0
   -5.9020    2.4340    0.0000 N   0  0  0  0  0  0  0  0  0  0  0  0
  1  2  2  0  0  0  0
  1 10  1  0  0  0  0
  2  3  1  0  0  0  0
  3  4  1  0  0  0  0
  3  9  2  0  0  0  0
  4  5  2  0  0  0  0
  4  6  1  0  0  0  0
  6  7  1  0  0  0  0
  7  8  2  0  0  0  0
  7 16  1  0  0  0  0
  8  9  1  0  0  0  0
  9 10  1  0  0  0  0
 10 11  1  0  0  0  0
 11 12  1  0  0  0  0
 12 13  1  0  0  0  0
 13 14  1  0  0  0  0
 14 15  1  0  0  0  0
M  END
>  <n>
14

>  <SMILES>
O=C1NC(=Nc2n(cnc12)COCCO)N

>  <IC50>
>1000

>  <Class>
0

>  <NAME>
ACYCLOVIR

>  <INCHI_KEY>
MKUXAQIIEYXACX-UHFFFAOYSA-N

>  <Reference>
Mitigating, Dawson

$$$$
ADENINE
  MOE2013           2D

 10 11  0  0  0  0  0  0  0  0999 V2000
    0.0000    0.0000    0.0000 C   0  0  0  0  0  0  0  0  0  0  0  0
    0.0000    1.5000    0.0000 N   0  0  0  0  0  0  0  0  0  0  0  0
   -1.4270    1.9640    0.0000 C   0  0  0  0  0  0  0  0  0  0  0  0
   -2.0370    3.3340    0.0000 C   0  0  0  0  0  0  0  0  0  0  0  0
   -3.5280    3.4910    0.0000 N   0  0  0  0  0  0  0  0  0  0  0  0
   -4.4100    2.2770    0.0000 C   0  0  0  0  0  0  0  0  0  0  0  0
   -3.8000    0.9070    0.0000 N   0  0  0  0  0  0  0  0  0  0  0  0
   -2.3080    0.7500    0.0000 C   0  0  0  0  0  0  0  0  0  0  0  0
   -1.4270   -0.4640    0.0000 N   0  0  0  0  0  0  0  0  0  0  0  0
   -1.1550    4.5470    0.0000 N   0  0  0  0  0  0  0  0  0  0  0  0
  1  2  1  0  0  0  0
  1  9  2  0  0  0  0
  2  3  1  0  0  0  0
  3  4  1  0  0  0  0
  3  8  2  0  0  0  0
  4  5  2  0  0  0  0
  4 10  1  0  0  0  0
  5  6  1  0  0  0  0
  6  7  2  0  0  0  0
  7  8  1  0  0  0  0
  8  9  1  0  0  0  0
M  END
>  <n>
15

>  <SMILES>
[nH]1c2c(ncnc2N)nc1

>  <IC50>
>1000

>  <Class>
0

>  <NAME>
ADENINE

>  <INCHI_KEY>
GFFGJBXGBJISGV-UHFFFAOYSA-N

>  <Reference>
Mitigating the inhibition of human Bile Salt Export Pump by drugs_ opportunities provided by physicochemical property modulation,  in-silico modeling and structural modification_SI

$$$$
ADIPHENINE
  MOE2013           2D

 23 24  0  0  0  0  0  0  0  0999 V2000
    5.1960   -9.0000    0.0000 C   0  0  0  0  0  0  0  0  0  0  0  0
    5.1960   -7.5000    0.0000 C   0  0  0  0  0  0  0  0  0  0  0  0
    3.8970   -6.7500    0.0000 N   0  0  0  0  0  0  0  0  0  0  0  0
    2.5980   -7.5000    0.0000 C   0  0  0  0  0  0  0  0  0  0  0  0
    2.5980   -9.0000    0.0000 C   0  0  0  0  0  0  0  0  0  0  0  0
    3.8970   -5.2500    0.0000 C   0  0  0  0  0  0  0  0  0  0  0  0
    2.5980   -4.5000    0.0000 C   0  0  0  0  0  0  0  0  0  0  0  0
    2.5980   -3.0000    0.0000 O   0  0  0  0  0  0  0  0  0  0  0  0
    1.2990   -2.2500    0.0000 C   0  0  0  0  0  0  0  0  0  0  0  0
    0.0000   -3.0000    0.0000 O   0  0  0  0  0  0  0  0  0  0  0  0
    1.2990   -0.7500    0.0000 C   0  0  0  0  0  0  0  0  0  0  0  0
    0.0000    0.0000    0.0000 C   0  0  0  0  0  0  0  0  0  0  0  0
    0.0000    1.5000    0.0000 C   0  0  0  0  0  0  0  0  0  0  0  0
   -1.2990    2.2500    0.0000 C   0  0  0  0  0  0  0  0  0  0  0  0
   -2.5980    1.5000    0.0000 C   0  0  0  0  0  0  0  0  0  0  0  0
   -2.5980    0.0000    0.0000 C   0  0  0  0  0  0  0  0  0  0  0  0
   -1.2990   -0.7500    0.0000 C   0  0  0  0  0  0  0  0  0  0  0  0
    2.5980    0.0000    0.0000 C   0  0  0  0  0  0  0  0  0  0  0  0
    3.8970   -0.7500    0.0000 C   0  0  0  0  0  0  0  0  0  0  0  0
    5.1960    0.0000    0.0000 C   0  0  0  0  0  0  0  0  0  0  0  0
    5.1960    1.5000    0.0000 C   0  0  0  0  0  0  0  0  0  0  0  0
    3.8970    2.2500    0.0000 C   0  0  0  0  0  0  0  0  0  0  0  0
    2.5980    1.5000    0.0000 C   0  0  0  0  0  0  0  0  0  0  0  0
  1  2  1  0  0  0  0
  2  3  1  0  0  0  0
  3  4  1  0  0  0  0
  3  6  1  0  0  0  0
  4  5  1  0  0  0  0
  6  7  1  0  0  0  0
  7  8  1  0  0  0  0
  8  9  1  0  0  0  0
  9 10  2  0  0  0  0
  9 11  1  0  0  0  0
 11 12  1  0  0  0  0
 11 18  1  0  0  0  0
 12 13  1  0  0  0  0
 12 17  2  0  0  0  0
 13 14  2  0  0  0  0
 14 15  1  0  0  0  0
 15 16  2  0  0  0  0
 16 17  1  0  0  0  0
 18 19  1  0  0  0  0
 18 23  2  0  0  0  0
 19 20  2  0  0  0  0
 20 21  1  0  0  0  0
 21 22  2  0  0  0  0
 22 23  1  0  0  0  0
M  END
>  <n>
16

>  <SMILES>
O(C(=O)C(c1ccccc1)c1ccccc1)CCN(CC)CC

>  <IC50>
158.4

>  <Class>
0

>  <NAME>
ADIPHENINE

>  <INCHI_KEY>
JGOAIQNSOGZNBX-UHFFFAOYSA-N

>  <Reference>
Mitigating the inhibition of human Bile Salt Export Pump by drugs_ opportunities provided by physicochemical property modulation,  in-silico modeling and structural modification_SI

$$$$
ALBUTEROL
  MOE2013           2D

 17 17  0  0  1  0  0  0  0  0999 V2000
    6.4950   -0.7500    0.0000 C   0  0  0  0  0  0  0  0  0  0  0  0
    5.1960    0.0000    0.0000 C   0  0  0  0  0  0  0  0  0  0  0  0
    6.1600    1.1490    0.0000 C   0  0  0  0  0  0  0  0  0  0  0  0
    4.2320    1.1490    0.0000 C   0  0  0  0  0  0  0  0  0  0  0  0
    3.8970   -0.7500    0.0000 N   0  0  0  0  0  0  0  0  0  0  0  0
    2.5980    0.0000    0.0000 C   0  0  0  0  0  0  0  0  0  0  0  0
    1.2990   -0.7500    0.0000 C   0  0  3  0  0  0  0  0  0  0  0  0
    0.0000    0.0000    0.0000 C   0  0  0  0  0  0  0  0  0  0  0  0
    0.0000    1.5000    0.0000 C   0  0  0  0  0  0  0  0  0  0  0  0
   -1.2990    2.2500    0.0000 C   0  0  0  0  0  0  0  0  0  0  0  0
   -2.5980    1.5000    0.0000 C   0  0  0  0  0  0  0  0  0  0  0  0
   -2.5980    0.0000    0.0000 C   0  0  0  0  0  0  0  0  0  0  0  0
   -1.2990   -0.7500    0.0000 C   0  0  0  0  0  0  0  0  0  0  0  0
   -3.8970   -0.7500    0.0000 C   0  0  0  0  0  0  0  0  0  0  0  0
   -5.1960    0.0000    0.0000 O   0  0  0  0  0  0  0  0  0  0  0  0
   -3.8970    2.2500    0.0000 O   0  0  0  0  0  0  0  0  0  0  0  0
    1.2990   -2.2500    0.0000 O   0  0  0  0  0  0  0  0  0  0  0  0
  1  2  1  0  0  0  0
  2  3  1  0  0  0  0
  2  4  1  0  0  0  0
  2  5  1  0  0  0  0
  5  6  1  0  0  0  0
  6  7  1  0  0  0  0
  7  8  1  0  0  0  0
  7 17  1  0  0  0  0
  8  9  1  0  0  0  0
  8 13  2  0  0  0  0
  9 10  2  0  0  0  0
 10 11  1  0  0  0  0
 11 12  2  0  0  0  0
 11 16  1  0  0  0  0
 12 13  1  0  0  0  0
 12 14  1  0  0  0  0
 14 15  1  0  0  0  0
M  END
>  <n>
17

>  <SMILES>
Oc1ccc(cc1CO)C(O)CNC(C)(C)C

>  <IC50>
>1000

>  <Class>
0

>  <NAME>
ALBUTEROL

>  <INCHI_KEY>
NDAUXUAQIAJITI-UHFFFAOYSA-N

>  <Reference>
Mitigating the inhibition of human Bile Salt Export Pump by drugs_ opportunities provided by physicochemical property modulation,  in-silico modeling and structural modification_SI

$$$$
ALMOKALANT
  MOE2013           2D

 24 24  0  0  1  0  0  0  0  0999 V2000
    6.4950   -9.7500    0.0000 S   0  0  3  0  0  0  0  0  0  0  0  0
    7.7940   -9.0000    0.0000 O   0  0  0  0  0  0  0  0  0  0  0  0
    6.4950  -11.2500    0.0000 C   0  0  0  0  0  0  0  0  0  0  0  0
    5.1960   -9.0000    0.0000 C   0  0  0  0  0  0  0  0  0  0  0  0
    5.1960   -7.5000    0.0000 C   0  0  0  0  0  0  0  0  0  0  0  0
    3.8970   -6.7500    0.0000 C   0  0  0  0  0  0  0  0  0  0  0  0
    3.8970   -5.2500    0.0000 N   0  0  3  0  0  0  0  0  0  0  0  0
    5.1960   -4.5000    0.0000 C   0  0  0  0  0  0  0  0  0  0  0  0
    2.5980   -4.5000    0.0000 C   0  0  0  0  0  0  0  0  0  0  0  0
    6.4950   -5.2500    0.0000 C   0  0  0  0  0  0  0  0  0  0  0  0
    2.5980   -3.0000    0.0000 C   0  0  3  0  0  0  0  0  0  0  0  0
    1.2990   -2.2500    0.0000 C   0  0  0  0  0  0  0  0  0  0  0  0
    3.8970   -2.2500    0.0000 O   0  0  0  0  0  0  0  0  0  0  0  0
    1.2990   -0.7500    0.0000 O   0  0  0  0  0  0  0  0  0  0  0  0
    0.0000    0.0000    0.0000 C   0  0  0  0  0  0  0  0  0  0  0  0
    0.0000    1.5000    0.0000 C   0  0  0  0  0  0  0  0  0  0  0  0
   -1.2990   -0.7500    0.0000 C   0  0  0  0  0  0  0  0  0  0  0  0
   -1.2990    2.2500    0.0000 C   0  0  0  0  0  0  0  0  0  0  0  0
   -2.5980    0.0000    0.0000 C   0  0  0  0  0  0  0  0  0  0  0  0
   -2.5980    1.5000    0.0000 C   0  0  0  0  0  0  0  0  0  0  0  0
   -3.8970    2.2500    0.0000 C   0  0  0  0  0  0  0  0  0  0  0  0
   -5.1960    3.0000    0.0000 N   0  0  0  0  0  0  0  0  0  0  0  0
    7.7940  -12.0000    0.0000 C   0  0  0  0  0  0  0  0  0  0  0  0
    7.7940  -13.5000    0.0000 C   0  0  0  0  0  0  0  0  0  0  0  0
  1  2  2  0  0  0  0
  1  3  1  0  0  0  0
  1  4  1  0  0  0  0
  3 23  1  0  0  0  0
  4  5  1  0  0  0  0
  5  6  1  0  0  0  0
  6  7  1  0  0  0  0
  7  8  1  0  0  0  0
  7  9  1  0  0  0  0
  8 10  1  0  0  0  0
  9 11  1  0  0  0  0
 11 12  1  0  0  0  0
 11 13  1  0  0  0  0
 12 14  1  0  0  0  0
 14 15  1  0  0  0  0
 15 16  2  0  0  0  0
 15 17  1  0  0  0  0
 16 18  1  0  0  0  0
 17 19  2  0  0  0  0
 18 20  2  0  0  0  0
 19 20  1  0  0  0  0
 20 21  1  0  0  0  0
 21 22  3  0  0  0  0
 23 24  1  0  0  0  0
M  END
>  <n>
18

>  <SMILES>
S(=O)(CCCN(CC(O)COc1ccc(cc1)C#N)CC)CCC

>  <IC50>
55.75

>  <Class>
0

>  <NAME>
ALMOKALANT

>  <INCHI_KEY>
ZMHOBBKJBYLXFR-UHFFFAOYSA-N

>  <Reference>
Mitigating the inhibition of human Bile Salt Export Pump by drugs_ opportunities provided by physicochemical property modulation,  in-silico modeling and structural modification_SI

$$$$
ALPHA_METHYLDOPA
  MOE2013           2D

 15 15  0  0  1  0  0  0  0  0999 V2000
    3.5620    1.1490    0.0000 C   0  0  0  0  0  0  0  0  0  0  0  0
    2.5980    0.0000    0.0000 C   0  0  2  0  0  0  0  0  0  0  0  0
    1.2990   -0.7500    0.0000 C   0  0  0  0  0  0  0  0  0  0  0  0
    0.0000    0.0000    0.0000 C   0  0  0  0  0  0  0  0  0  0  0  0
    0.0000    1.5000    0.0000 C   0  0  0  0  0  0  0  0  0  0  0  0
   -1.2990    2.2500    0.0000 C   0  0  0  0  0  0  0  0  0  0  0  0
   -2.5980    1.5000    0.0000 C   0  0  0  0  0  0  0  0  0  0  0  0
   -2.5980    0.0000    0.0000 C   0  0  0  0  0  0  0  0  0  0  0  0
   -1.2990   -0.7500    0.0000 C   0  0  0  0  0  0  0  0  0  0  0  0
   -3.8970   -0.7500    0.0000 O   0  0  0  0  0  0  0  0  0  0  0  0
   -3.8970    2.2500    0.0000 O   0  0  0  0  0  0  0  0  0  0  0  0
    3.8970   -0.7500    0.0000 C   0  0  0  0  0  0  0  0  0  0  0  0
    5.1960    0.0000    0.0000 O   0  0  0  0  0  0  0  0  0  0  0  0
    3.8970   -2.2500    0.0000 O   0  0  0  0  0  0  0  0  0  0  0  0
    1.6340    1.1490    0.0000 N   0  0  0  0  0  0  0  0  0  0  0  0
  2  1  1  1  0  0  0
  2  3  1  0  0  0  0
  2 12  1  0  0  0  0
  2 15  1  6  0  0  0
  3  4  1  0  0  0  0
  4  5  2  0  0  0  0
  4  9  1  0  0  0  0
  5  6  1  0  0  0  0
  6  7  2  0  0  0  0
  7  8  1  0  0  0  0
  7 11  1  0  0  0  0
  8  9  2  0  0  0  0
  8 10  1  0  0  0  0
 12 13  2  0  0  0  0
 12 14  1  0  0  0  0
M  END
>  <n>
19

>  <SMILES>
Oc1cc(ccc1O)C[C@](N)(C(O)=O)C

>  <IC50>
>1000

>  <Class>
0

>  <NAME>
ALPHA-METHYLDOPA

>  <INCHI_KEY>
CJCSPKMFHVPWAR-JTQLQIEISA-N

>  <Reference>
Mitigating the inhibition of human Bile Salt Export Pump by drugs_ opportunities provided by physicochemical property modulation,  in-silico modeling and structural modification_SI

$$$$
ALTRETAMINE
  MOE2013           2D

 15 15  0  0  0  0  0  0  0  0999 V2000
    1.2990   -2.2500    0.0000 C   0  0  0  0  0  0  0  0  0  0  0  0
    1.2990   -0.7500    0.0000 N   0  0  0  0  0  0  0  0  0  0  0  0
    2.5980    0.0000    0.0000 C   0  0  0  0  0  0  0  0  0  0  0  0
    0.0000    0.0000    0.0000 C   0  0  0  0  0  0  0  0  0  0  0  0
    0.0000    1.5000    0.0000 N   0  0  0  0  0  0  0  0  0  0  0  0
   -1.2990    2.2500    0.0000 C   0  0  0  0  0  0  0  0  0  0  0  0
   -2.5980    1.5000    0.0000 N   0  0  0  0  0  0  0  0  0  0  0  0
   -2.5980    0.0000    0.0000 C   0  0  0  0  0  0  0  0  0  0  0  0
   -1.2990   -0.7500    0.0000 N   0  0  0  0  0  0  0  0  0  0  0  0
   -3.8970   -0.7500    0.0000 N   0  0  0  0  0  0  0  0  0  0  0  0
   -5.1960    0.0000    0.0000 C   0  0  0  0  0  0  0  0  0  0  0  0
   -3.8970   -2.2500    0.0000 C   0  0  0  0  0  0  0  0  0  0  0  0
   -1.2990    3.7500    0.0000 N   0  0  0  0  0  0  0  0  0  0  0  0
   -2.5980    4.5000    0.0000 C   0  0  0  0  0  0  0  0  0  0  0  0
    0.0000    4.5000    0.0000 C   0  0  0  0  0  0  0  0  0  0  0  0
  1  2  1  0  0  0  0
  2  3  1  0  0  0  0
  2  4  1  0  0  0  0
  4  5  1  0  0  0  0
  4  9  2  0  0  0  0
  5  6  2  0  0  0  0
  6  7  1  0  0  0  0
  6 13  1  0  0  0  0
  7  8  2  0  0  0  0
  8  9  1  0  0  0  0
  8 10  1  0  0  0  0
 10 11  1  0  0  0  0
 10 12  1  0  0  0  0
 13 14  1  0  0  0  0
 13 15  1  0  0  0  0
M  END
>  <n>
21

>  <SMILES>
n1c(nc(nc1N(C)C)N(C)C)N(C)C

>  <IC50>
>1000

>  <Class>
0

>  <NAME>
ALTRETAMINE

>  <INCHI_KEY>
UUVWYPNAQBNQJQ-UHFFFAOYSA-N

>  <Reference>
Mitigating the inhibition of human Bile Salt Export Pump by drugs_ opportunities provided by physicochemical property modulation,  in-silico modeling and structural modification_SI

$$$$
AMILORIDE
  MOE2013           2D

 15 15  0  0  0  0  0  0  0  0999 V2000
    0.0000    0.0000    0.0000 C   0  0  0  0  0  0  0  0  0  0  0  0
    0.0000    1.5000    0.0000 C   0  0  0  0  0  0  0  0  0  0  0  0
   -1.2990    2.2500    0.0000 N   0  0  0  0  0  0  0  0  0  0  0  0
   -2.5980    1.5000    0.0000 C   0  0  0  0  0  0  0  0  0  0  0  0
   -2.5980    0.0000    0.0000 C   0  0  0  0  0  0  0  0  0  0  0  0
   -1.2990   -0.7500    0.0000 N   0  0  0  0  0  0  0  0  0  0  0  0
   -3.8970   -0.7500    0.0000 Cl  0  0  0  0  0  0  0  0  0  0  0  0
   -3.8970    2.2500    0.0000 N   0  0  0  0  0  0  0  0  0  0  0  0
    1.2990    2.2500    0.0000 N   0  0  0  0  0  0  0  0  0  0  0  0
    1.2990   -0.7500    0.0000 C   0  0  0  0  0  0  0  0  0  0  0  0
    1.2990   -2.2500    0.0000 O   0  0  0  0  0  0  0  0  0  0  0  0
    2.5980    0.0000    0.0000 N   0  0  0  0  0  0  0  0  0  0  0  0
    3.8970   -0.7500    0.0000 C   0  0  0  0  0  0  0  0  0  0  0  0
    5.1960    0.0000    0.0000 N   0  0  0  0  0  0  0  0  0  0  0  0
    3.8970   -2.2500    0.0000 N   0  0  0  0  0  0  0  0  0  0  0  0
  1  2  1  0  0  0  0
  1  6  2  0  0  0  0
  1 10  1  0  0  0  0
  2  3  2  0  0  0  0
  2  9  1  0  0  0  0
  3  4  1  0  0  0  0
  4  5  2  0  0  0  0
  4  8  1  0  0  0  0
  5  6  1  0  0  0  0
  5  7  1  0  0  0  0
 10 11  2  0  0  0  0
 10 12  1  0  0  0  0
 12 13  1  0  0  0  0
 13 14  2  0  0  0  0
 13 15  1  0  0  0  0
M  END
>  <n>
22

>  <SMILES>
Clc1nc(C(=O)NC(N)=N)c(nc1N)N

>  <IC50>
>1000

>  <Class>
0

>  <NAME>
AMILORIDE

>  <INCHI_KEY>
XSDQTOBWRPYKKA-UHFFFAOYSA-N

>  <Reference>
Mitigating the inhibition of human Bile Salt Export Pump by drugs_ opportunities provided by physicochemical property modulation,  in-silico modeling and structural modification_SI

$$$$
AMINOGLUTETHIMIDE
  MOE2013           2D

 17 18  0  0  1  0  0  0  0  0999 V2000
    3.2890    0.9200    0.0000 C   0  0  0  0  0  0  0  0  0  0  0  0
    1.8120    0.6600    0.0000 C   0  0  0  0  0  0  0  0  0  0  0  0
    1.2990   -0.7500    0.0000 C   0  0  3  0  0  0  0  0  0  0  0  0
    0.3350   -1.8990    0.0000 C   0  0  0  0  0  0  0  0  0  0  0  0
    0.8480   -3.3090    0.0000 C   0  0  0  0  0  0  0  0  0  0  0  0
    2.3250   -3.5690    0.0000 C   0  0  0  0  0  0  0  0  0  0  0  0
    2.8380   -4.9790    0.0000 O   0  0  0  0  0  0  0  0  0  0  0  0
    3.2890   -2.4200    0.0000 N   0  0  0  0  0  0  0  0  0  0  0  0
    2.7760   -1.0100    0.0000 C   0  0  0  0  0  0  0  0  0  0  0  0
    3.7400    0.1390    0.0000 O   0  0  0  0  0  0  0  0  0  0  0  0
    0.0000    0.0000    0.0000 C   0  0  0  0  0  0  0  0  0  0  0  0
    0.0000    1.5000    0.0000 C   0  0  0  0  0  0  0  0  0  0  0  0
   -1.2990    2.2500    0.0000 C   0  0  0  0  0  0  0  0  0  0  0  0
   -2.5980    1.5000    0.0000 C   0  0  0  0  0  0  0  0  0  0  0  0
   -2.5980    0.0000    0.0000 C   0  0  0  0  0  0  0  0  0  0  0  0
   -1.2990   -0.7500    0.0000 C   0  0  0  0  0  0  0  0  0  0  0  0
   -3.8970    2.2500    0.0000 N   0  0  0  0  0  0  0  0  0  0  0  0
  1  2  1  0  0  0  0
  2  3  1  0  0  0  0
  3  4  1  0  0  0  0
  3  9  1  0  0  0  0
  3 11  1  0  0  0  0
  4  5  1  0  0  0  0
  5  6  1  0  0  0  0
  6  7  2  0  0  0  0
  6  8  1  0  0  0  0
  8  9  1  0  0  0  0
  9 10  2  0  0  0  0
 11 12  1  0  0  0  0
 11 16  2  0  0  0  0
 12 13  2  0  0  0  0
 13 14  1  0  0  0  0
 14 15  2  0  0  0  0
 14 17  1  0  0  0  0
 15 16  1  0  0  0  0
M  END
>  <n>
23

>  <SMILES>
O=C1NC(=O)CCC1(CC)c1ccc(N)cc1

>  <IC50>
>1000

>  <Class>
0

>  <NAME>
AMINOGLUTETHIMIDE

>  <INCHI_KEY>
ROBVIMPUHSLWNV-UHFFFAOYSA-N

>  <Reference>
Mitigating the inhibition of human Bile Salt Export Pump by drugs_ opportunities provided by physicochemical property modulation,  in-silico modeling and structural modification_SI

$$$$
AMINOHIPPURIC_ACID
  MOE2013           2D

 14 14  0  0  0  0  0  0  0  0999 V2000
    0.0000    0.0000    0.0000 C   0  0  0  0  0  0  0  0  0  0  0  0
    0.0000    1.5000    0.0000 C   0  0  0  0  0  0  0  0  0  0  0  0
   -1.2990    2.2500    0.0000 C   0  0  0  0  0  0  0  0  0  0  0  0
   -2.5980    1.5000    0.0000 C   0  0  0  0  0  0  0  0  0  0  0  0
   -2.5980    0.0000    0.0000 C   0  0  0  0  0  0  0  0  0  0  0  0
   -1.2990   -0.7500    0.0000 C   0  0  0  0  0  0  0  0  0  0  0  0
   -1.2990   -2.2500    0.0000 C   0  0  0  0  0  0  0  0  0  0  0  0
   -2.5980   -3.0000    0.0000 O   0  0  0  0  0  0  0  0  0  0  0  0
    0.0000   -3.0000    0.0000 N   0  0  0  0  0  0  0  0  0  0  0  0
    0.0000   -4.5000    0.0000 C   0  0  0  0  0  0  0  0  0  0  0  0
    1.2990   -5.2500    0.0000 C   0  0  0  0  0  0  0  0  0  0  0  0
    1.2990   -6.7500    0.0000 O   0  0  0  0  0  0  0  0  0  0  0  0
    2.5980   -4.5000    0.0000 O   0  0  0  0  0  0  0  0  0  0  0  0
   -1.2990    3.7500    0.0000 N   0  0  0  0  0  0  0  0  0  0  0  0
  1  2  1  0  0  0  0
  1  6  2  0  0  0  0
  2  3  2  0  0  0  0
  3  4  1  0  0  0  0
  3 14  1  0  0  0  0
  4  5  2  0  0  0  0
  5  6  1  0  0  0  0
  6  7  1  0  0  0  0
  7  8  2  0  0  0  0
  7  9  1  0  0  0  0
  9 10  1  0  0  0  0
 10 11  1  0  0  0  0
 11 12  2  0  0  0  0
 11 13  1  0  0  0  0
M  END
>  <n>
24

>  <SMILES>
OC(=O)CNC(=O)c1ccc(N)cc1

>  <IC50>
>1000

>  <Class>
0

>  <NAME>
AMINOHIPPURIC ACID

>  <INCHI_KEY>
HSMNQINEKMPTIC-UHFFFAOYSA-N

>  <Reference>
Mitigating the inhibition of human Bile Salt Export Pump by drugs_ opportunities provided by physicochemical property modulation,  in-silico modeling and structural modification_SI

$$$$
AMIODARONE
  MOE2013           2D

 31 33  0  0  0  0  0  0  0  0999 V2000
    2.1140   -4.7470    0.0000 C   0  0  0  0  0  0  0  0  0  0  0  0
    2.2700   -3.2550    0.0000 C   0  0  0  0  0  0  0  0  0  0  0  0
    1.0570   -2.3740    0.0000 C   0  0  0  0  0  0  0  0  0  0  0  0
    1.2140   -0.8820    0.0000 C   0  0  0  0  0  0  0  0  0  0  0  0
    0.0000    0.0000    0.0000 C   0  0  0  0  0  0  0  0  0  0  0  0
    0.0000    1.5000    0.0000 C   0  0  0  0  0  0  0  0  0  0  0  0
   -1.4270    1.9640    0.0000 C   0  0  0  0  0  0  0  0  0  0  0  0
   -2.0370    3.3340    0.0000 C   0  0  0  0  0  0  0  0  0  0  0  0
   -3.5280    3.4910    0.0000 C   0  0  0  0  0  0  0  0  0  0  0  0
   -4.4100    2.2770    0.0000 C   0  0  0  0  0  0  0  0  0  0  0  0
   -3.8000    0.9070    0.0000 C   0  0  0  0  0  0  0  0  0  0  0  0
   -2.3080    0.7500    0.0000 C   0  0  0  0  0  0  0  0  0  0  0  0
   -1.4270   -0.4640    0.0000 O   0  0  0  0  0  0  0  0  0  0  0  0
    1.2140    2.3820    0.0000 C   0  0  0  0  0  0  0  0  0  0  0  0
    2.5840    1.7720    0.0000 O   0  0  0  0  0  0  0  0  0  0  0  0
    1.0570    3.8740    0.0000 C   0  0  0  0  0  0  0  0  0  0  0  0
    2.2700    4.7550    0.0000 C   0  0  0  0  0  0  0  0  0  0  0  0
    2.1140    6.2470    0.0000 C   0  0  0  0  0  0  0  0  0  0  0  0
    0.7430    6.8570    0.0000 C   0  0  0  0  0  0  0  0  0  0  0  0
   -0.4700    5.9750    0.0000 C   0  0  0  0  0  0  0  0  0  0  0  0
   -0.3140    4.4840    0.0000 C   0  0  0  0  0  0  0  0  0  0  0  0
   -1.8410    6.5860    0.0000 I   0  0  0  0  0  0  0  0  0  0  0  0
    0.5860    8.3490    0.0000 O   0  0  0  0  0  0  0  0  0  0  0  0
    1.8000    9.2300    0.0000 C   0  0  0  0  0  0  0  0  0  0  0  0
    1.6430   10.7220    0.0000 C   0  0  0  0  0  0  0  0  0  0  0  0
    2.8570   11.6040    0.0000 N   0  0  0  0  0  0  0  0  0  0  0  0
    2.7000   13.0960    0.0000 C   0  0  0  0  0  0  0  0  0  0  0  0
    3.9130   13.9770    0.0000 C   0  0  0  0  0  0  0  0  0  0  0  0
    4.2270   10.9940    0.0000 C   0  0  0  0  0  0  0  0  0  0  0  0
    5.4400   11.8760    0.0000 C   0  0  0  0  0  0  0  0  0  0  0  0
    3.3270    7.1290    0.0000 I   0  0  0  0  0  0  0  0  0  0  0  0
  1  2  1  0  0  0  0
  2  3  1  0  0  0  0
  3  4  1  0  0  0  0
  4  5  1  0  0  0  0
  5  6  2  0  0  0  0
  5 13  1  0  0  0  0
  6  7  1  0  0  0  0
  6 14  1  0  0  0  0
  7  8  1  0  0  0  0
  7 12  2  0  0  0  0
  8  9  2  0  0  0  0
  9 10  1  0  0  0  0
 10 11  2  0  0  0  0
 11 12  1  0  0  0  0
 12 13  1  0  0  0  0
 14 15  2  0  0  0  0
 14 16  1  0  0  0  0
 16 17  1  0  0  0  0
 16 21  2  0  0  0  0
 17 18  2  0  0  0  0
 18 19  1  0  0  0  0
 18 31  1  0  0  0  0
 19 20  2  0  0  0  0
 19 23  1  0  0  0  0
 20 21  1  0  0  0  0
 20 22  1  0  0  0  0
 23 24  1  0  0  0  0
 24 25  1  0  0  0  0
 25 26  1  0  0  0  0
 26 27  1  0  0  0  0
 26 29  1  0  0  0  0
 27 28  1  0  0  0  0
 29 30  1  0  0  0  0
M  END
>  <n>
25

>  <SMILES>
Ic1cc(cc(I)c1OCCN(CC)CC)C(=O)c1c2c(oc1CCCC)cccc2

>  <IC50>
<10

>  <Class>
1

>  <NAME>
AMIODARONE

>  <INCHI_KEY>
IYIKLHRQXLHMJQ-UHFFFAOYSA-N

>  <Reference>
Mitigating the inhibition of human Bile Salt Export Pump by drugs_ opportunities provided by physicochemical property modulation,  in-silico modeling and structural modification_SI

$$$$
AMODIAQUINE
  MOE2013           2D

 25 27  0  0  0  0  0  0  0  0999 V2000
    6.4950   11.2500    0.0000 C   0  0  0  0  0  0  0  0  0  0  0  0
    5.1960   10.5000    0.0000 C   0  0  0  0  0  0  0  0  0  0  0  0
    5.1960    9.0000    0.0000 N   0  0  0  0  0  0  0  0  0  0  0  0
    6.4950    8.2500    0.0000 C   0  0  0  0  0  0  0  0  0  0  0  0
    7.7940    9.0000    0.0000 C   0  0  0  0  0  0  0  0  0  0  0  0
    3.8970    8.2500    0.0000 C   0  0  0  0  0  0  0  0  0  0  0  0
    3.8970    6.7500    0.0000 C   0  0  0  0  0  0  0  0  0  0  0  0
    2.5980    6.0000    0.0000 C   0  0  0  0  0  0  0  0  0  0  0  0
    2.5980    4.5000    0.0000 C   0  0  0  0  0  0  0  0  0  0  0  0
    3.8970    3.7500    0.0000 C   0  0  0  0  0  0  0  0  0  0  0  0
    5.1960    4.5000    0.0000 C   0  0  0  0  0  0  0  0  0  0  0  0
    5.1960    6.0000    0.0000 C   0  0  0  0  0  0  0  0  0  0  0  0
    6.4950    6.7500    0.0000 O   0  0  0  0  0  0  0  0  0  0  0  0
    1.2990    3.7500    0.0000 N   0  0  0  0  0  0  0  0  0  0  0  0
    1.2990    2.2500    0.0000 C   0  0  0  0  0  0  0  0  0  0  0  0
    2.5980    1.5000    0.0000 C   0  0  0  0  0  0  0  0  0  0  0  0
    2.5980    0.0000    0.0000 C   0  0  0  0  0  0  0  0  0  0  0  0
    1.2990   -0.7500    0.0000 N   0  0  0  0  0  0  0  0  0  0  0  0
    0.0000    0.0000    0.0000 C   0  0  0  0  0  0  0  0  0  0  0  0
    0.0000    1.5000    0.0000 C   0  0  0  0  0  0  0  0  0  0  0  0
   -1.2990    2.2500    0.0000 C   0  0  0  0  0  0  0  0  0  0  0  0
   -2.5980    1.5000    0.0000 C   0  0  0  0  0  0  0  0  0  0  0  0
   -2.5980    0.0000    0.0000 C   0  0  0  0  0  0  0  0  0  0  0  0
   -1.2990   -0.7500    0.0000 C   0  0  0  0  0  0  0  0  0  0  0  0
   -3.8970   -0.7500    0.0000 Cl  0  0  0  0  0  0  0  0  0  0  0  0
  1  2  1  0  0  0  0
  2  3  1  0  0  0  0
  3  4  1  0  0  0  0
  3  6  1  0  0  0  0
  4  5  1  0  0  0  0
  6  7  1  0  0  0  0
  7  8  1  0  0  0  0
  7 12  2  0  0  0  0
  8  9  2  0  0  0  0
  9 10  1  0  0  0  0
  9 14  1  0  0  0  0
 10 11  2  0  0  0  0
 11 12  1  0  0  0  0
 12 13  1  0  0  0  0
 14 15  1  0  0  0  0
 15 16  2  0  0  0  0
 15 20  1  0  0  0  0
 16 17  1  0  0  0  0
 17 18  2  0  0  0  0
 18 19  1  0  0  0  0
 19 20  1  0  0  0  0
 19 24  2  0  0  0  0
 20 21  2  0  0  0  0
 21 22  1  0  0  0  0
 22 23  2  0  0  0  0
 23 24  1  0  0  0  0
 23 25  1  0  0  0  0
M  END
>  <n>
27

>  <SMILES>
Clc1cc2nccc(Nc3cc(CN(CC)CC)c(O)cc3)c2cc1

>  <IC50>
77.76

>  <Class>
0

>  <NAME>
AMODIAQUINE

>  <INCHI_KEY>
OVCDSSHSILBFBN-UHFFFAOYSA-N

>  <Reference>
Mitigating the inhibition of human Bile Salt Export Pump by drugs_ opportunities provided by physicochemical property modulation,  in-silico modeling and structural modification_SI

$$$$
AMOXAPINE
  MOE2013           2D

 22 25  0  0  0  0  0  0  0  0999 V2000
    2.5980    1.5000    0.0000 C   0  0  0  0  0  0  0  0  0  0  0  0
    2.5980    0.0000    0.0000 C   0  0  0  0  0  0  0  0  0  0  0  0
    1.2990   -0.7500    0.0000 C   0  0  0  0  0  0  0  0  0  0  0  0
    0.0000    0.0000    0.0000 C   0  0  0  0  0  0  0  0  0  0  0  0
    0.0000    1.5000    0.0000 C   0  0  0  0  0  0  0  0  0  0  0  0
    1.2990    2.2500    0.0000 C   0  0  0  0  0  0  0  0  0  0  0  0
   -1.1730    2.4350    0.0000 N   0  0  0  0  0  0  0  0  0  0  0  0
   -2.6350    2.1020    0.0000 C   0  0  0  0  0  0  0  0  0  0  0  0
   -3.2860    0.7500    0.0000 C   0  0  0  0  0  0  0  0  0  0  0  0
   -4.7820    0.8620    0.0000 C   0  0  0  0  0  0  0  0  0  0  0  0
   -5.6270   -0.3770    0.0000 C   0  0  0  0  0  0  0  0  0  0  0  0
   -4.9760   -1.7290    0.0000 C   0  0  0  0  0  0  0  0  0  0  0  0
   -3.4800   -1.8410    0.0000 C   0  0  0  0  0  0  0  0  0  0  0  0
   -2.6350   -0.6020    0.0000 C   0  0  0  0  0  0  0  0  0  0  0  0
   -1.1730   -0.9350    0.0000 O   0  0  0  0  0  0  0  0  0  0  0  0
   -7.1230   -0.2650    0.0000 Cl  0  0  0  0  0  0  0  0  0  0  0  0
   -3.5700    3.2740    0.0000 N   0  0  0  0  0  0  0  0  0  0  0  0
   -3.0220    4.6700    0.0000 C   0  0  0  0  0  0  0  0  0  0  0  0
   -3.9580    5.8430    0.0000 C   0  0  0  0  0  0  0  0  0  0  0  0
   -5.4410    5.6200    0.0000 N   0  0  0  0  0  0  0  0  0  0  0  0
   -5.9890    4.2230    0.0000 C   0  0  0  0  0  0  0  0  0  0  0  0
   -5.0540    3.0510    0.0000 C   0  0  0  0  0  0  0  0  0  0  0  0
  1  2  1  0  0  0  0
  1  6  2  0  0  0  0
  2  3  2  0  0  0  0
  3  4  1  0  0  0  0
  4  5  2  0  0  0  0
  4 15  1  0  0  0  0
  5  6  1  0  0  0  0
  5  7  1  0  0  0  0
  7  8  2  0  0  0  0
  8  9  1  0  0  0  0
  8 17  1  0  0  0  0
  9 10  1  0  0  0  0
  9 14  2  0  0  0  0
 10 11  2  0  0  0  0
 11 12  1  0  0  0  0
 11 16  1  0  0  0  0
 12 13  2  0  0  0  0
 13 14  1  0  0  0  0
 14 15  1  0  0  0  0
 17 18  1  0  0  0  0
 17 22  1  0  0  0  0
 18 19  1  0  0  0  0
 19 20  1  0  0  0  0
 20 21  1  0  0  0  0
 21 22  1  0  0  0  0
M  END
>  <n>
28

>  <SMILES>
Clc1cc2c(Oc3c(N=C2N2CCNCC2)cccc3)cc1

>  <IC50>
230.1

>  <Class>
0

>  <NAME>
AMOXAPINE

>  <INCHI_KEY>
QWGDMFLQWFTERH-UHFFFAOYSA-N

>  <Reference>
Mitigating the inhibition of human Bile Salt Export Pump by drugs_ opportunities provided by physicochemical property modulation,  in-silico modeling and structural modification_SI

$$$$
Amoxicillin
  MOE2013           2D

 25 27  0  0  1  0  0  0  0  0999 V2000
    3.4230   -0.2540    0.0000 C   0  0  0  0  0  0  0  0  0  0  0  0
    2.3080    0.7500    0.0000 C   0  0  0  0  0  0  0  0  0  0  0  0
    1.4270   -0.4640    0.0000 C   0  0  3  0  0  0  0  0  0  0  0  0
    0.0000    0.0000    0.0000 N   0  0  0  0  0  0  0  0  0  0  0  0
    0.0000    1.5000    0.0000 C   0  0  3  0  0  0  0  0  0  0  0  0
    1.4270    1.9640    0.0000 S   0  0  0  0  0  0  0  0  0  0  0  0
   -1.5000    1.5000    0.0000 C   0  0  3  0  0  0  0  0  0  0  0  0
   -1.5000    0.0000    0.0000 C   0  0  0  0  0  0  0  0  0  0  0  0
   -2.5610   -1.0610    0.0000 O   0  0  0  0  0  0  0  0  0  0  0  0
   -2.5610    2.5610    0.0000 N   0  0  0  0  0  0  0  0  0  0  0  0
   -4.0100    2.1720    0.0000 C   0  0  0  0  0  0  0  0  0  0  0  0
   -4.3980    0.7240    0.0000 O   0  0  0  0  0  0  0  0  0  0  0  0
   -5.0700    3.2330    0.0000 C   0  0  3  0  0  0  0  0  0  0  0  0
   -6.5190    2.8450    0.0000 C   0  0  0  0  0  0  0  0  0  0  0  0
   -7.5800    3.9060    0.0000 C   0  0  0  0  0  0  0  0  0  0  0  0
   -9.0290    3.5170    0.0000 C   0  0  0  0  0  0  0  0  0  0  0  0
   -9.4170    2.0680    0.0000 C   0  0  0  0  0  0  0  0  0  0  0  0
   -8.3560    1.0080    0.0000 C   0  0  0  0  0  0  0  0  0  0  0  0
   -6.9070    1.3960    0.0000 C   0  0  0  0  0  0  0  0  0  0  0  0
  -10.8660    1.6800    0.0000 O   0  0  0  0  0  0  0  0  0  0  0  0
   -4.6820    4.6820    0.0000 N   0  0  0  0  0  0  0  0  0  0  0  0
    1.8900   -1.8900    0.0000 C   0  0  0  0  0  0  0  0  0  0  0  0
    3.3570   -2.2020    0.0000 O   0  0  0  0  0  0  0  0  0  0  0  0
    0.8860   -3.0050    0.0000 O   0  0  0  0  0  0  0  0  0  0  0  0
    3.4230    1.7540    0.0000 C   0  0  0  0  0  0  0  0  0  0  0  0
  1  2  1  0  0  0  0
  2  3  1  0  0  0  0
  2  6  1  0  0  0  0
  2 25  1  0  0  0  0
  3  4  1  0  0  0  0
  3 22  1  0  0  0  0
  4  5  1  0  0  0  0
  4  8  1  0  0  0  0
  5  6  1  0  0  0  0
  5  7  1  0  0  0  0
  7  8  1  0  0  0  0
  7 10  1  0  0  0  0
  8  9  2  0  0  0  0
 10 11  1  0  0  0  0
 11 12  2  0  0  0  0
 11 13  1  0  0  0  0
 13 14  1  0  0  0  0
 13 21  1  0  0  0  0
 14 15  1  0  0  0  0
 14 19  2  0  0  0  0
 15 16  2  0  0  0  0
 16 17  1  0  0  0  0
 17 18  2  0  0  0  0
 17 20  1  0  0  0  0
 18 19  1  0  0  0  0
 22 23  2  0  0  0  0
 22 24  1  0  0  0  0
M  END
>  <n>
132

>  <SMILES>
S1[C@H]2N([C@@H](C(O)=O)C1(C)C)C(=O)[C@H]2NC(=O)[C@H](N)c1ccc(O)cc1

>  <IC50>
>1000

>  <Class>
0

>  <NAME>
AMOXICILLIN

>  <INCHI_KEY>
LSQZJLSUYDQPKJ-NJBDSQKTSA-N

>  <Reference>
Mitigating, Dawson

$$$$
AMRINONE
  MOE2013           2D

 14 15  0  0  0  0  0  0  0  0999 V2000
    1.2990   -2.2500    0.0000 C   0  0  0  0  0  0  0  0  0  0  0  0
    2.5980   -3.0000    0.0000 C   0  0  0  0  0  0  0  0  0  0  0  0
    3.8970   -2.2500    0.0000 N   0  0  0  0  0  0  0  0  0  0  0  0
    3.8970   -0.7500    0.0000 C   0  0  0  0  0  0  0  0  0  0  0  0
    2.5980    0.0000    0.0000 C   0  0  0  0  0  0  0  0  0  0  0  0
    1.2990   -0.7500    0.0000 C   0  0  0  0  0  0  0  0  0  0  0  0
    0.0000    0.0000    0.0000 C   0  0  0  0  0  0  0  0  0  0  0  0
    0.0000    1.5000    0.0000 C   0  0  0  0  0  0  0  0  0  0  0  0
   -1.2990    2.2500    0.0000 C   0  0  0  0  0  0  0  0  0  0  0  0
   -2.5980    1.5000    0.0000 C   0  0  0  0  0  0  0  0  0  0  0  0
   -3.8970    2.2500    0.0000 O   0  0  0  0  0  0  0  0  0  0  0  0
   -2.5980    0.0000    0.0000 N   0  0  0  0  0  0  0  0  0  0  0  0
   -1.2990   -0.7500    0.0000 C   0  0  0  0  0  0  0  0  0  0  0  0
   -1.2990    3.7500    0.0000 N   0  0  0  0  0  0  0  0  0  0  0  0
  1  2  1  0  0  0  0
  1  6  2  0  0  0  0
  2  3  2  0  0  0  0
  3  4  1  0  0  0  0
  4  5  2  0  0  0  0
  5  6  1  0  0  0  0
  6  7  1  0  0  0  0
  7  8  1  0  0  0  0
  7 13  2  0  0  0  0
  8  9  2  0  0  0  0
  9 10  1  0  0  0  0
  9 14  1  0  0  0  0
 10 11  2  0  0  0  0
 10 12  1  0  0  0  0
 12 13  1  0  0  0  0
M  END
>  <n>
29

>  <SMILES>
O=C1NC=C(C=C1N)c1ccncc1

>  <IC50>
370.8

>  <Class>
0

>  <NAME>
AMRINONE

>  <INCHI_KEY>
RNLQIBCLLYYYFJ-UHFFFAOYSA-N

>  <Reference>
Mitigating the inhibition of human Bile Salt Export Pump by drugs_ opportunities provided by physicochemical property modulation,  in-silico modeling and structural modification_SI

$$$$
ANTAZOLINE
  MOE2013           2D

 20 22  0  0  1  0  0  0  0  0999 V2000
    7.9080    0.6770    0.0000 C   0  0  0  0  0  0  0  0  0  0  0  0
    6.6950    1.5590    0.0000 C   0  0  0  0  0  0  0  0  0  0  0  0
    5.3240    0.9490    0.0000 C   0  0  0  0  0  0  0  0  0  0  0  0
    5.1680   -0.5430    0.0000 C   0  0  0  0  0  0  0  0  0  0  0  0
    6.3810   -1.4250    0.0000 C   0  0  0  0  0  0  0  0  0  0  0  0
    7.7520   -0.8150    0.0000 C   0  0  0  0  0  0  0  0  0  0  0  0
    3.7970   -1.1530    0.0000 C   0  0  0  0  0  0  0  0  0  0  0  0
    2.5840   -0.2720    0.0000 N   0  0  3  0  0  0  0  0  0  0  0  0
    1.2140   -0.8820    0.0000 C   0  0  0  0  0  0  0  0  0  0  0  0
    0.0000    0.0000    0.0000 C   0  0  0  0  0  0  0  0  0  0  0  0
    0.0000    1.5000    0.0000 N   0  0  0  0  0  0  0  0  0  0  0  0
   -1.4270    1.9640    0.0000 C   0  0  0  0  0  0  0  0  0  0  0  0
   -2.3080    0.7500    0.0000 C   0  0  0  0  0  0  0  0  0  0  0  0
   -1.4270   -0.4640    0.0000 N   0  0  0  0  0  0  0  0  0  0  0  0
    2.7410    1.2200    0.0000 C   0  0  0  0  0  0  0  0  0  0  0  0
    4.1110    1.8300    0.0000 C   0  0  0  0  0  0  0  0  0  0  0  0
    4.2680    3.3220    0.0000 C   0  0  0  0  0  0  0  0  0  0  0  0
    3.0540    4.2040    0.0000 C   0  0  0  0  0  0  0  0  0  0  0  0
    1.6840    3.5940    0.0000 C   0  0  0  0  0  0  0  0  0  0  0  0
    1.5270    2.1020    0.0000 C   0  0  0  0  0  0  0  0  0  0  0  0
  1  2  1  0  0  0  0
  1  6  2  0  0  0  0
  2  3  2  0  0  0  0
  3  4  1  0  0  0  0
  4  5  2  0  0  0  0
  4  7  1  0  0  0  0
  5  6  1  0  0  0  0
  7  8  1  0  0  0  0
  8  9  1  0  0  0  0
  8 15  1  0  0  0  0
  9 10  1  0  0  0  0
 10 11  2  0  0  0  0
 10 14  1  0  0  0  0
 11 12  1  0  0  0  0
 12 13  1  0  0  0  0
 13 14  1  0  0  0  0
 15 16  1  0  0  0  0
 15 20  2  0  0  0  0
 16 17  2  0  0  0  0
 17 18  1  0  0  0  0
 18 19  2  0  0  0  0
 19 20  1  0  0  0  0
M  END
>  <n>
30

>  <SMILES>
N1CCN=C1CN(Cc1ccccc1)c1ccccc1

>  <IC50>
>1000

>  <Class>
0

>  <NAME>
ANTAZOLINE

>  <INCHI_KEY>
REYFJDPCWQRWAA-UHFFFAOYSA-N

>  <Reference>
Mitigating the inhibition of human Bile Salt Export Pump by drugs_ opportunities provided by physicochemical property modulation,  in-silico modeling and structural modification_SI

$$$$
ANTIPYRINE
  MOE2013           2D

 14 15  0  0  1  0  0  0  0  0999 V2000
    1.2140   -0.8820    0.0000 C   0  0  0  0  0  0  0  0  0  0  0  0
    0.0000    0.0000    0.0000 C   0  0  0  0  0  0  0  0  0  0  0  0
    0.0000    1.5000    0.0000 C   0  0  0  0  0  0  0  0  0  0  0  0
   -1.4270    1.9640    0.0000 C   0  0  0  0  0  0  0  0  0  0  0  0
   -1.8900    3.3900    0.0000 O   0  0  0  0  0  0  0  0  0  0  0  0
   -2.3080    0.7500    0.0000 N   0  0  0  0  0  0  0  0  0  0  0  0
   -1.4270   -0.4640    0.0000 N   0  0  3  0  0  0  0  0  0  0  0  0
   -1.8900   -1.8900    0.0000 C   0  0  0  0  0  0  0  0  0  0  0  0
   -3.8080    0.7500    0.0000 C   0  0  0  0  0  0  0  0  0  0  0  0
   -4.5580    2.0490    0.0000 C   0  0  0  0  0  0  0  0  0  0  0  0
   -6.0580    2.0490    0.0000 C   0  0  0  0  0  0  0  0  0  0  0  0
   -6.8080    0.7500    0.0000 C   0  0  0  0  0  0  0  0  0  0  0  0
   -6.0580   -0.5490    0.0000 C   0  0  0  0  0  0  0  0  0  0  0  0
   -4.5580   -0.5490    0.0000 C   0  0  0  0  0  0  0  0  0  0  0  0
  1  2  1  0  0  0  0
  2  3  2  0  0  0  0
  2  7  1  0  0  0  0
  3  4  1  0  0  0  0
  4  5  2  0  0  0  0
  4  6  1  0  0  0  0
  6  7  1  0  0  0  0
  6  9  1  0  0  0  0
  7  8  1  0  0  0  0
  9 10  1  0  0  0  0
  9 14  2  0  0  0  0
 10 11  2  0  0  0  0
 11 12  1  0  0  0  0
 12 13  2  0  0  0  0
 13 14  1  0  0  0  0
M  END
>  <n>
31

>  <SMILES>
O=C1N(N(C)C(=C1)C)c1ccccc1

>  <IC50>
>1000

>  <Class>
0

>  <NAME>
ANTIPYRINE

>  <INCHI_KEY>
VEQOALNAAJBPNY-UHFFFAOYSA-N

>  <Reference>
Mitigating the inhibition of human Bile Salt Export Pump by drugs_ opportunities provided by physicochemical property modulation,  in-silico modeling and structural modification_SI

$$$$
APOMORPHINE
  MOE2013           2D

 20 23  0  0  1  0  0  0  0  0999 V2000
   -2.5980    4.5000    0.0000 C   0  0  0  0  0  0  0  0  0  0  0  0
   -1.2990    3.7500    0.0000 N   0  0  3  0  0  0  0  0  0  0  0  0
    0.0000    4.5000    0.0000 C   0  0  0  0  0  0  0  0  0  0  0  0
    1.2990    3.7500    0.0000 C   0  0  0  0  0  0  0  0  0  0  0  0
    1.2990    2.2500    0.0000 C   0  0  0  0  0  0  0  0  0  0  0  0
    2.5980    1.5000    0.0000 C   0  0  0  0  0  0  0  0  0  0  0  0
    2.5980    0.0000    0.0000 C   0  0  0  0  0  0  0  0  0  0  0  0
    1.2990   -0.7500    0.0000 C   0  0  0  0  0  0  0  0  0  0  0  0
    0.0000    0.0000    0.0000 C   0  0  0  0  0  0  0  0  0  0  0  0
    0.0000    1.5000    0.0000 C   0  0  0  0  0  0  0  0  0  0  0  0
   -1.2990    2.2500    0.0000 C   0  0  3  0  0  0  0  0  0  0  0  0
   -2.5980    1.5000    0.0000 C   0  0  0  0  0  0  0  0  0  0  0  0
   -2.5980    0.0000    0.0000 C   0  0  0  0  0  0  0  0  0  0  0  0
   -1.2990   -0.7500    0.0000 C   0  0  0  0  0  0  0  0  0  0  0  0
   -1.2990   -2.2500    0.0000 C   0  0  0  0  0  0  0  0  0  0  0  0
   -2.5980   -3.0000    0.0000 C   0  0  0  0  0  0  0  0  0  0  0  0
   -3.8970   -2.2500    0.0000 C   0  0  0  0  0  0  0  0  0  0  0  0
   -3.8970   -0.7500    0.0000 C   0  0  0  0  0  0  0  0  0  0  0  0
   -2.5980   -4.5000    0.0000 O   0  0  0  0  0  0  0  0  0  0  0  0
    0.0000   -3.0000    0.0000 O   0  0  0  0  0  0  0  0  0  0  0  0
  1  2  1  0  0  0  0
  2  3  1  0  0  0  0
  2 11  1  0  0  0  0
  3  4  1  0  0  0  0
  4  5  1  0  0  0  0
  5  6  1  0  0  0  0
  5 10  2  0  0  0  0
  6  7  2  0  0  0  0
  7  8  1  0  0  0  0
  8  9  2  0  0  0  0
  9 10  1  0  0  0  0
  9 14  1  0  0  0  0
 10 11  1  0  0  0  0
 11 12  1  0  0  0  0
 12 13  1  0  0  0  0
 13 14  1  0  0  0  0
 13 18  2  0  0  0  0
 14 15  2  0  0  0  0
 15 16  1  0  0  0  0
 15 20  1  0  0  0  0
 16 17  2  0  0  0  0
 16 19  1  0  0  0  0
 17 18  1  0  0  0  0
M  END
>  <n>
32

>  <SMILES>
Oc1c-2c(C[C@H]3N(CCc4c3c-2ccc4)C)ccc1O

>  <IC50>
211.5

>  <Class>
0

>  <NAME>
APOMORPHINE

>  <INCHI_KEY>
VMWNQDUVQKEIOC-CYBMUJFWSA-N

>  <Reference>
Mitigating the inhibition of human Bile Salt Export Pump by drugs_ opportunities provided by physicochemical property modulation,  in-silico modeling and structural modification_SI

$$$$
ARECOLINE
  MOE2013           2D

 11 11  0  0  1  0  0  0  0  0999 V2000
    1.2990   -0.7500    0.0000 C   0  0  0  0  0  0  0  0  0  0  0  0
    0.0000    0.0000    0.0000 N   0  0  3  0  0  0  0  0  0  0  0  0
    0.0000    1.5000    0.0000 C   0  0  0  0  0  0  0  0  0  0  0  0
   -1.2990    2.2500    0.0000 C   0  0  0  0  0  0  0  0  0  0  0  0
   -2.5980    1.5000    0.0000 C   0  0  0  0  0  0  0  0  0  0  0  0
   -2.5980    0.0000    0.0000 C   0  0  0  0  0  0  0  0  0  0  0  0
   -1.2990   -0.7500    0.0000 C   0  0  0  0  0  0  0  0  0  0  0  0
   -3.8970   -0.7500    0.0000 C   0  0  0  0  0  0  0  0  0  0  0  0
   -3.8970   -2.2500    0.0000 O   0  0  0  0  0  0  0  0  0  0  0  0
   -5.1960    0.0000    0.0000 O   0  0  0  0  0  0  0  0  0  0  0  0
   -6.4950   -0.7500    0.0000 C   0  0  0  0  0  0  0  0  0  0  0  0
  1  2  1  0  0  0  0
  2  3  1  0  0  0  0
  2  7  1  0  0  0  0
  3  4  1  0  0  0  0
  4  5  1  0  0  0  0
  5  6  2  0  0  0  0
  6  7  1  0  0  0  0
  6  8  1  0  0  0  0
  8  9  2  0  0  0  0
  8 10  1  0  0  0  0
 10 11  1  0  0  0  0
M  END
>  <n>
34

>  <SMILES>
O(C(=O)C=1CN(CCC=1)C)C

>  <IC50>
>1000

>  <Class>
0

>  <NAME>
ARECOLINE

>  <INCHI_KEY>
HJJPJSXJAXAIPN-UHFFFAOYSA-N

>  <Reference>
Mitigating the inhibition of human Bile Salt Export Pump by drugs_ opportunities provided by physicochemical property modulation,  in-silico modeling and structural modification_SI

$$$$
ARH047108
  MOE2013           2D

 25 27  0  0  0  0  0  0  0  0999 V2000
    6.4950    6.7500    0.0000 C   0  0  0  0  0  0  0  0  0  0  0  0
    5.1960    6.0000    0.0000 C   0  0  0  0  0  0  0  0  0  0  0  0
    3.8970    6.7500    0.0000 C   0  0  0  0  0  0  0  0  0  0  0  0
    3.8970    8.2500    0.0000 C   0  0  0  0  0  0  0  0  0  0  0  0
    2.5980    9.0000    0.0000 C   0  0  0  0  0  0  0  0  0  0  0  0
    1.2990    8.2500    0.0000 C   0  0  0  0  0  0  0  0  0  0  0  0
    1.2990    6.7500    0.0000 C   0  0  0  0  0  0  0  0  0  0  0  0
    2.5980    6.0000    0.0000 C   0  0  0  0  0  0  0  0  0  0  0  0
    2.5980    4.5000    0.0000 C   0  0  0  0  0  0  0  0  0  0  0  0
    1.2990    3.7500    0.0000 N   0  0  0  0  0  0  0  0  0  0  0  0
    1.2990    2.2500    0.0000 C   0  0  0  0  0  0  0  0  0  0  0  0
    2.5980    1.5000    0.0000 C   0  0  0  0  0  0  0  0  0  0  0  0
    2.5980    0.0000    0.0000 C   0  0  0  0  0  0  0  0  0  0  0  0
    1.2990   -0.7500    0.0000 C   0  0  0  0  0  0  0  0  0  0  0  0
    0.0000    0.0000    0.0000 N   0  0  0  0  0  0  0  0  0  0  0  0
    0.0000    1.5000    0.0000 C   0  0  0  0  0  0  0  0  0  0  0  0
   -1.4270    1.9640    0.0000 N   0  0  0  0  0  0  0  0  0  0  0  0
   -2.3080    0.7500    0.0000 C   0  0  0  0  0  0  0  0  0  0  0  0
   -1.4270   -0.4640    0.0000 C   0  0  0  0  0  0  0  0  0  0  0  0
   -1.8900   -1.8900    0.0000 C   0  0  0  0  0  0  0  0  0  0  0  0
   -3.8080    0.7500    0.0000 C   0  0  0  0  0  0  0  0  0  0  0  0
    3.8970   -0.7500    0.0000 C   0  0  0  0  0  0  0  0  0  0  0  0
    3.8970   -2.2500    0.0000 O   0  0  0  0  0  0  0  0  0  0  0  0
    5.1960    0.0000    0.0000 N   0  0  0  0  0  0  0  0  0  0  0  0
    0.0000    6.0000    0.0000 C   0  0  0  0  0  0  0  0  0  0  0  0
  1  2  1  0  0  0  0
  2  3  1  0  0  0  0
  3  4  1  0  0  0  0
  3  8  2  0  0  0  0
  4  5  2  0  0  0  0
  5  6  1  0  0  0  0
  6  7  2  0  0  0  0
  7  8  1  0  0  0  0
  7 25  1  0  0  0  0
  8  9  1  0  0  0  0
  9 10  1  0  0  0  0
 10 11  1  0  0  0  0
 11 12  2  0  0  0  0
 11 16  1  0  0  0  0
 12 13  1  0  0  0  0
 13 14  2  0  0  0  0
 13 22  1  0  0  0  0
 14 15  1  0  0  0  0
 15 16  1  0  0  0  0
 15 19  1  0  0  0  0
 16 17  2  0  0  0  0
 17 18  1  0  0  0  0
 18 19  2  0  0  0  0
 18 21  1  0  0  0  0
 19 20  1  0  0  0  0
 22 23  2  0  0  0  0
 22 24  1  0  0  0  0
M  END
>  <n>
35

>  <SMILES>
O=C(N)C=1C=C(NCc2c(cccc2C)CC)c2n(C=1)c(C)c(n2)C

>  <IC50>
<10

>  <Class>
1

>  <NAME>
ARH047108

>  <INCHI_KEY>
IDSZXCFCCNVXER-UHFFFAOYSA-N

>  <Reference>
Mitigating the inhibition of human Bile Salt Export Pump by drugs_ opportunities provided by physicochemical property modulation,  in-silico modeling and structural modification_SI

$$$$
mol36
  MOE2013           2D

 26 28  0  0  0  0  0  0  0  0999 V2000
    3.8970   -9.7500    0.0000 C   0  0  0  0  0  0  0  0  0  0  0  0
    2.5980   -9.0000    0.0000 C   0  0  0  0  0  0  0  0  0  0  0  0
    2.5980   -7.5000    0.0000 N   0  0  0  0  0  0  0  0  0  0  0  0
    3.8970   -6.7500    0.0000 C   0  0  0  0  0  0  0  0  0  0  0  0
    5.1960   -7.5000    0.0000 C   0  0  0  0  0  0  0  0  0  0  0  0
    1.2990   -6.7500    0.0000 C   0  0  0  0  0  0  0  0  0  0  0  0
    0.0000   -7.5000    0.0000 O   0  0  0  0  0  0  0  0  0  0  0  0
    1.2990   -5.2500    0.0000 C   0  0  0  0  0  0  0  0  0  0  0  0
    2.5980   -4.5000    0.0000 C   0  0  0  0  0  0  0  0  0  0  0  0
    2.5980   -3.0000    0.0000 C   0  0  0  0  0  0  0  0  0  0  0  0
    1.2990   -2.2500    0.0000 C   0  0  0  0  0  0  0  0  0  0  0  0
    0.0000   -3.0000    0.0000 C   0  0  0  0  0  0  0  0  0  0  0  0
    0.0000   -4.5000    0.0000 C   0  0  0  0  0  0  0  0  0  0  0  0
    1.2990   -0.7500    0.0000 C   0  0  0  0  0  0  0  0  0  0  0  0
    2.5980    0.0000    0.0000 C   0  0  0  0  0  0  0  0  0  0  0  0
    3.8970   -0.7500    0.0000 C   0  0  0  0  0  0  0  0  0  0  0  0
    5.1960    0.0000    0.0000 C   0  0  0  0  0  0  0  0  0  0  0  0
    5.1960    1.5000    0.0000 N   0  0  0  0  0  0  0  0  0  0  0  0
    3.8970    2.2500    0.0000 C   0  0  0  0  0  0  0  0  0  0  0  0
    2.5980    1.5000    0.0000 C   0  0  0  0  0  0  0  0  0  0  0  0
    0.0000    0.0000    0.0000 C   0  0  0  0  0  0  0  0  0  0  0  0
    0.0000    1.5000    0.0000 C   0  0  0  0  0  0  0  0  0  0  0  0
   -1.2990    2.2500    0.0000 C   0  0  0  0  0  0  0  0  0  0  0  0
   -2.5980    1.5000    0.0000 C   0  0  0  0  0  0  0  0  0  0  0  0
   -2.5980    0.0000    0.0000 C   0  0  0  0  0  0  0  0  0  0  0  0
   -1.2990   -0.7500    0.0000 C   0  0  0  0  0  0  0  0  0  0  0  0
  1  2  1  0  0  0  0
  2  3  1  0  0  0  0
  3  4  1  0  0  0  0
  3  6  1  0  0  0  0
  4  5  1  0  0  0  0
  6  7  2  0  0  0  0
  6  8  1  0  0  0  0
  8  9  1  0  0  0  0
  8 13  2  0  0  0  0
  9 10  2  0  0  0  0
 10 11  1  0  0  0  0
 11 12  2  0  0  0  0
 11 14  1  0  0  0  0
 12 13  1  0  0  0  0
 14 15  2  0  0  0  0
 14 21  1  0  0  0  0
 15 16  1  0  0  0  0
 15 20  1  0  0  0  0
 16 17  1  0  0  0  0
 17 18  1  0  0  0  0
 18 19  1  0  0  0  0
 19 20  1  0  0  0  0
 21 22  1  0  0  0  0
 21 26  2  0  0  0  0
 22 23  2  0  0  0  0
 23 24  1  0  0  0  0
 24 25  2  0  0  0  0
 25 26  1  0  0  0  0
M  END
>  <n>
36

>  <SMILES>
O=C(N(CC)CC)c1ccc(cc1)C(c1ccccc1)=C1CCNCC1

>  <IC50>
105.8

>  <Class>
0

>  <NAME>
ARM 390

>  <INCHI_KEY>
SMUGAZNLKPFBSB-UHFFFAOYSA-N

>  <Reference>
Mitigating the inhibition of human Bile Salt Export Pump by drugs_ opportunities provided by physicochemical property modulation,  in-silico modeling and structural modification_SI

$$$$
ASPARTAME
  MOE2013           2D

 21 21  0  0  1  0  0  0  0  0999 V2000
   -2.5980   -3.0000    0.0000 C   0  0  0  0  0  0  0  0  0  0  0  0
   -1.2990   -2.2500    0.0000 O   0  0  0  0  0  0  0  0  0  0  0  0
    0.0000   -3.0000    0.0000 C   0  0  0  0  0  0  0  0  0  0  0  0
    0.0000   -4.5000    0.0000 O   0  0  0  0  0  0  0  0  0  0  0  0
    1.2990   -2.2500    0.0000 C   0  0  3  0  0  0  0  0  0  0  0  0
    1.2990   -0.7500    0.0000 C   0  0  0  0  0  0  0  0  0  0  0  0
    0.0000    0.0000    0.0000 C   0  0  0  0  0  0  0  0  0  0  0  0
    0.0000    1.5000    0.0000 C   0  0  0  0  0  0  0  0  0  0  0  0
   -1.2990    2.2500    0.0000 C   0  0  0  0  0  0  0  0  0  0  0  0
   -2.5980    1.5000    0.0000 C   0  0  0  0  0  0  0  0  0  0  0  0
   -2.5980    0.0000    0.0000 C   0  0  0  0  0  0  0  0  0  0  0  0
   -1.2990   -0.7500    0.0000 C   0  0  0  0  0  0  0  0  0  0  0  0
    2.5980   -3.0000    0.0000 N   0  0  0  0  0  0  0  0  0  0  0  0
    2.5980   -4.5000    0.0000 C   0  0  0  0  0  0  0  0  0  0  0  0
    1.2990   -5.2500    0.0000 O   0  0  0  0  0  0  0  0  0  0  0  0
    3.8970   -5.2500    0.0000 C   0  0  3  0  0  0  0  0  0  0  0  0
    3.8970   -6.7500    0.0000 C   0  0  0  0  0  0  0  0  0  0  0  0
    5.1960   -7.5000    0.0000 C   0  0  0  0  0  0  0  0  0  0  0  0
    5.1960   -9.0000    0.0000 O   0  0  0  0  0  0  0  0  0  0  0  0
    6.4950   -6.7500    0.0000 O   0  0  0  0  0  0  0  0  0  0  0  0
    5.1960   -4.5000    0.0000 N   0  0  0  0  0  0  0  0  0  0  0  0
  1  2  1  0  0  0  0
  2  3  1  0  0  0  0
  3  4  2  0  0  0  0
  3  5  1  0  0  0  0
  5  6  1  0  0  0  0
  5 13  1  0  0  0  0
  6  7  1  0  0  0  0
  7  8  1  0  0  0  0
  7 12  2  0  0  0  0
  8  9  2  0  0  0  0
  9 10  1  0  0  0  0
 10 11  2  0  0  0  0
 11 12  1  0  0  0  0
 13 14  1  0  0  0  0
 14 15  2  0  0  0  0
 14 16  1  0  0  0  0
 16 17  1  0  0  0  0
 16 21  1  0  0  0  0
 17 18  1  0  0  0  0
 18 19  2  0  0  0  0
 18 20  1  0  0  0  0
M  END
>  <n>
37

>  <SMILES>
O(C(=O)[C@@H](NC(=O)[C@@H](N)CC(O)=O)Cc1ccccc1)C

>  <IC50>
>1000

>  <Class>
0

>  <NAME>
ASPARTAME

>  <INCHI_KEY>
IAOZJIPTCAWIRG-QWRGUYRKSA-N

>  <Reference>
Mitigating the inhibition of human Bile Salt Export Pump by drugs_ opportunities provided by physicochemical property modulation,  in-silico modeling and structural modification_SI

$$$$
ASTEMIZOLE
  MOE2013           2D

 34 38  0  0  0  0  0  0  0  0999 V2000
   14.6030    2.2360    0.0000 C   0  0  0  0  0  0  0  0  0  0  0  0
   13.3900    3.1180    0.0000 O   0  0  0  0  0  0  0  0  0  0  0  0
   12.0190    2.5070    0.0000 C   0  0  0  0  0  0  0  0  0  0  0  0
   10.8060    3.3890    0.0000 C   0  0  0  0  0  0  0  0  0  0  0  0
    9.4350    2.7790    0.0000 C   0  0  0  0  0  0  0  0  0  0  0  0
    9.2790    1.2870    0.0000 C   0  0  0  0  0  0  0  0  0  0  0  0
   10.4920    0.4060    0.0000 C   0  0  0  0  0  0  0  0  0  0  0  0
   11.8620    1.0160    0.0000 C   0  0  0  0  0  0  0  0  0  0  0  0
    7.9080    0.6770    0.0000 C   0  0  0  0  0  0  0  0  0  0  0  0
    6.6950    1.5590    0.0000 C   0  0  0  0  0  0  0  0  0  0  0  0
    5.3240    0.9490    0.0000 N   0  0  0  0  0  0  0  0  0  0  0  0
    4.1110    1.8300    0.0000 C   0  0  0  0  0  0  0  0  0  0  0  0
    2.7410    1.2200    0.0000 C   0  0  0  0  0  0  0  0  0  0  0  0
    2.5840   -0.2720    0.0000 C   0  0  0  0  0  0  0  0  0  0  0  0
    3.7970   -1.1530    0.0000 C   0  0  0  0  0  0  0  0  0  0  0  0
    5.1680   -0.5430    0.0000 C   0  0  0  0  0  0  0  0  0  0  0  0
    1.2140   -0.8820    0.0000 N   0  0  0  0  0  0  0  0  0  0  0  0
    0.0000    0.0000    0.0000 C   0  0  0  0  0  0  0  0  0  0  0  0
    0.0000    1.5000    0.0000 N   0  0  0  0  0  0  0  0  0  0  0  0
   -1.4270    1.9640    0.0000 C   0  0  0  0  0  0  0  0  0  0  0  0
   -2.0370    3.3340    0.0000 C   0  0  0  0  0  0  0  0  0  0  0  0
   -3.5280    3.4910    0.0000 C   0  0  0  0  0  0  0  0  0  0  0  0
   -4.4100    2.2770    0.0000 C   0  0  0  0  0  0  0  0  0  0  0  0
   -3.8000    0.9070    0.0000 C   0  0  0  0  0  0  0  0  0  0  0  0
   -2.3080    0.7500    0.0000 C   0  0  0  0  0  0  0  0  0  0  0  0
   -1.4270   -0.4640    0.0000 N   0  0  0  0  0  0  0  0  0  0  0  0
   -1.8900   -1.8900    0.0000 C   0  0  0  0  0  0  0  0  0  0  0  0
   -3.3570   -2.2020    0.0000 C   0  0  0  0  0  0  0  0  0  0  0  0
   -4.3610   -1.0870    0.0000 C   0  0  0  0  0  0  0  0  0  0  0  0
   -5.8280   -1.3990    0.0000 C   0  0  0  0  0  0  0  0  0  0  0  0
   -6.2920   -2.8260    0.0000 C   0  0  0  0  0  0  0  0  0  0  0  0
   -5.2880   -3.9400    0.0000 C   0  0  0  0  0  0  0  0  0  0  0  0
   -3.8210   -3.6290    0.0000 C   0  0  0  0  0  0  0  0  0  0  0  0
   -7.7590   -3.1380    0.0000 F   0  0  0  0  0  0  0  0  0  0  0  0
  1  2  1  0  0  0  0
  2  3  1  0  0  0  0
  3  4  1  0  0  0  0
  3  8  2  0  0  0  0
  4  5  2  0  0  0  0
  5  6  1  0  0  0  0
  6  7  2  0  0  0  0
  6  9  1  0  0  0  0
  7  8  1  0  0  0  0
  9 10  1  0  0  0  0
 10 11  1  0  0  0  0
 11 12  1  0  0  0  0
 11 16  1  0  0  0  0
 12 13  1  0  0  0  0
 13 14  1  0  0  0  0
 14 15  1  0  0  0  0
 14 17  1  0  0  0  0
 15 16  1  0  0  0  0
 17 18  1  0  0  0  0
 18 19  2  0  0  0  0
 18 26  1  0  0  0  0
 19 20  1  0  0  0  0
 20 21  1  0  0  0  0
 20 25  2  0  0  0  0
 21 22  2  0  0  0  0
 22 23  1  0  0  0  0
 23 24  2  0  0  0  0
 24 25  1  0  0  0  0
 25 26  1  0  0  0  0
 26 27  1  0  0  0  0
 27 28  1  0  0  0  0
 28 29  1  0  0  0  0
 28 33  2  0  0  0  0
 29 30  2  0  0  0  0
 30 31  1  0  0  0  0
 31 32  2  0  0  0  0
 31 34  1  0  0  0  0
 32 33  1  0  0  0  0
M  END
>  <n>
38

>  <SMILES>
Fc1ccc(cc1)Cn1c2c(nc1NC1CCN(CC1)CCc1ccc(OC)cc1)cccc2

>  <IC50>
<10

>  <Class>
1

>  <NAME>
ASTEMIZOLE

>  <INCHI_KEY>
GXDALQBWZGODGZ-UHFFFAOYSA-N

>  <Reference>
Mitigating the inhibition of human Bile Salt Export Pump by drugs_ opportunities provided by physicochemical property modulation,  in-silico modeling and structural modification_SI

$$$$
AZ1
  MOE2013           2D

 14 14  0  0  0  0  0  0  0  0999 V2000
    0.0000    0.0000    0.0000 C   0  0  0  0  0  0  0  0  0  0  0  0
    0.0000    1.5000    0.0000 C   0  0  0  0  0  0  0  0  0  0  0  0
   -1.2990    2.2500    0.0000 C   0  0  0  0  0  0  0  0  0  0  0  0
   -2.5980    1.5000    0.0000 C   0  0  0  0  0  0  0  0  0  0  0  0
   -2.5980    0.0000    0.0000 C   0  0  0  0  0  0  0  0  0  0  0  0
   -1.2990   -0.7500    0.0000 C   0  0  0  0  0  0  0  0  0  0  0  0
   -3.8970   -0.7500    0.0000 C   0  0  0  0  0  0  0  0  0  0  0  0
   -5.1960    0.0000    0.0000 O   0  0  0  0  0  0  0  0  0  0  0  0
   -3.8970   -2.2500    0.0000 N   0  0  0  0  0  0  0  0  0  0  0  0
   -5.1960   -3.0000    0.0000 C   0  0  0  0  0  0  0  0  0  0  0  0
   -5.1960   -4.5000    0.0000 C   0  0  0  0  0  0  0  0  0  0  0  0
   -6.4950   -5.2500    0.0000 O   0  0  0  0  0  0  0  0  0  0  0  0
   -3.8970   -5.2500    0.0000 O   0  0  0  0  0  0  0  0  0  0  0  0
   -3.8970    2.2500    0.0000 N   0  0  0  0  0  0  0  0  0  0  0  0
  1  2  1  0  0  0  0
  1  6  2  0  0  0  0
  2  3  2  0  0  0  0
  3  4  1  0  0  0  0
  4  5  2  0  0  0  0
  4 14  1  0  0  0  0
  5  6  1  0  0  0  0
  5  7  1  0  0  0  0
  7  8  2  0  0  0  0
  7  9  1  0  0  0  0
  9 10  1  0  0  0  0
 10 11  1  0  0  0  0
 11 12  2  0  0  0  0
 11 13  1  0  0  0  0
M  END
>  <n>
39

>  <SMILES>
OC(=O)CNC(=O)c1ccccc1N

>  <IC50>
>1000

>  <Class>
0

>  <NAME>
AZ1

>  <INCHI_KEY>
DEFPNMKDESPGBA-UHFFFAOYSA-N

>  <Reference>
Mitigating the inhibition of human Bile Salt Export Pump by drugs_ opportunities provided by physicochemical property modulation,  in-silico modeling and structural modification_SI

$$$$
AZ10
  MOE2013           2D

 40 45  0  0  0  0  0  0  0  0999 V2000
   -2.5980   -4.5000    0.0000 C   0  0  0  0  0  0  0  0  0  0  0  0
   -1.2990   -5.2500    0.0000 C   0  0  0  0  0  0  0  0  0  0  0  0
   -1.2990   -6.7500    0.0000 C   0  0  0  0  0  0  0  0  0  0  0  0
    0.0000   -7.5000    0.0000 C   0  0  0  0  0  0  0  0  0  0  0  0
    1.2990   -6.7500    0.0000 C   0  0  0  0  0  0  0  0  0  0  0  0
    1.2990   -5.2500    0.0000 C   0  0  0  0  0  0  0  0  0  0  0  0
    0.0000   -4.5000    0.0000 C   0  0  0  0  0  0  0  0  0  0  0  0
    0.0000   -3.0000    0.0000 N   0  0  0  0  0  0  0  0  0  0  0  0
    1.2990   -2.2500    0.0000 C   0  0  0  0  0  0  0  0  0  0  0  0
    1.2990   -0.7500    0.0000 N   0  0  0  0  0  0  0  0  0  0  0  0
    0.0000    0.0000    0.0000 C   0  0  0  0  0  0  0  0  0  0  0  0
    0.0000    1.5000    0.0000 C   0  0  0  0  0  0  0  0  0  0  0  0
   -1.2990    2.2500    0.0000 C   0  0  0  0  0  0  0  0  0  0  0  0
   -2.5980    1.5000    0.0000 C   0  0  0  0  0  0  0  0  0  0  0  0
   -2.5980    0.0000    0.0000 C   0  0  0  0  0  0  0  0  0  0  0  0
   -1.2990   -0.7500    0.0000 C   0  0  0  0  0  0  0  0  0  0  0  0
   -1.2990   -2.2500    0.0000 C   0  0  0  0  0  0  0  0  0  0  0  0
   -2.5980   -3.0000    0.0000 O   0  0  0  0  0  0  0  0  0  0  0  0
   -3.8970    2.2500    0.0000 N   0  0  0  0  0  0  0  0  0  0  0  0
   -3.8970    3.7500    0.0000 C   0  0  0  0  0  0  0  0  0  0  0  0
   -5.1960    4.5000    0.0000 C   0  0  0  0  0  0  0  0  0  0  0  0
   -6.4950    3.7500    0.0000 N   0  0  0  0  0  0  0  0  0  0  0  0
   -6.4950    2.2500    0.0000 C   0  0  0  0  0  0  0  0  0  0  0  0
   -5.1960    1.5000    0.0000 C   0  0  0  0  0  0  0  0  0  0  0  0
   -7.7940    4.5000    0.0000 C   0  0  0  0  0  0  0  0  0  0  0  0
    2.5980   -7.5000    0.0000 N   0  0  0  0  0  0  0  0  0  0  0  0
    2.5980   -9.0000    0.0000 C   0  0  0  0  0  0  0  0  0  0  0  0
    1.2990   -9.7500    0.0000 O   0  0  0  0  0  0  0  0  0  0  0  0
    3.8970   -9.7500    0.0000 C   0  0  0  0  0  0  0  0  0  0  0  0
    3.8970  -11.2500    0.0000 C   0  0  0  0  0  0  0  0  0  0  0  0
    5.1960  -12.0000    0.0000 C   0  0  0  0  0  0  0  0  0  0  0  0
    6.4950  -11.2500    0.0000 N   0  0  0  0  0  0  0  0  0  0  0  0
    6.4950   -9.7500    0.0000 C   0  0  0  0  0  0  0  0  0  0  0  0
    5.1960   -9.0000    0.0000 C   0  0  0  0  0  0  0  0  0  0  0  0
    7.7940   -9.0000    0.0000 N   0  0  0  0  0  0  0  0  0  0  0  0
    9.0930   -9.7500    0.0000 C   0  0  0  0  0  0  0  0  0  0  0  0
   10.3920   -9.0000    0.0000 C   0  0  0  0  0  0  0  0  0  0  0  0
   10.3920   -7.5000    0.0000 O   0  0  0  0  0  0  0  0  0  0  0  0
    9.0930   -6.7500    0.0000 C   0  0  0  0  0  0  0  0  0  0  0  0
    7.7940   -7.5000    0.0000 C   0  0  0  0  0  0  0  0  0  0  0  0
  1  2  1  0  0  0  0
  2  3  1  0  0  0  0
  2  7  2  0  0  0  0
  3  4  2  0  0  0  0
  4  5  1  0  0  0  0
  5  6  2  0  0  0  0
  5 26  1  0  0  0  0
  6  7  1  0  0  0  0
  7  8  1  0  0  0  0
  8  9  1  0  0  0  0
  8 17  1  0  0  0  0
  9 10  2  0  0  0  0
 10 11  1  0  0  0  0
 11 12  1  0  0  0  0
 11 16  2  0  0  0  0
 12 13  2  0  0  0  0
 13 14  1  0  0  0  0
 14 15  2  0  0  0  0
 14 19  1  0  0  0  0
 15 16  1  0  0  0  0
 16 17  1  0  0  0  0
 17 18  2  0  0  0  0
 19 20  1  0  0  0  0
 19 24  1  0  0  0  0
 20 21  1  0  0  0  0
 21 22  1  0  0  0  0
 22 23  1  0  0  0  0
 22 25  1  0  0  0  0
 23 24  1  0  0  0  0
 26 27  1  0  0  0  0
 27 28  2  0  0  0  0
 27 29  1  0  0  0  0
 29 30  1  0  0  0  0
 29 34  2  0  0  0  0
 30 31  2  0  0  0  0
 31 32  1  0  0  0  0
 32 33  2  0  0  0  0
 33 34  1  0  0  0  0
 33 35  1  0  0  0  0
 35 36  1  0  0  0  0
 35 40  1  0  0  0  0
 36 37  1  0  0  0  0
 37 38  1  0  0  0  0
 38 39  1  0  0  0  0
 39 40  1  0  0  0  0
M  END
>  <n>
40

>  <SMILES>
O1CCN(CC1)c1nccc(c1)C(=O)Nc1cc(N2C=Nc3c(cc(N4CCN(CC4)C)cc3)C2=O)c(cc1)C

>  <IC50>
<10

>  <Class>
1

>  <NAME>
AZ10

>  <INCHI_KEY>
BLSPWFIREKMTOA-UHFFFAOYSA-N

>  <Reference>
Mitigating the inhibition of human Bile Salt Export Pump by drugs_ opportunities provided by physicochemical property modulation,  in-silico modeling and structural modification_SI

$$$$
AZ100
  MOE2013           2D

 29 32  0  0  1  0  0  0  0  0999 V2000
    7.7940    0.0000    0.0000 C   0  0  0  0  0  0  0  0  0  0  0  0
    6.4950   -0.7500    0.0000 C   0  0  0  0  0  0  0  0  0  0  0  0
    5.1960    0.0000    0.0000 C   0  0  3  0  0  0  0  0  0  0  0  0
    5.1960    1.5000    0.0000 C   0  0  0  0  0  0  0  0  0  0  0  0
    6.4950    2.2500    0.0000 C   0  0  0  0  0  0  0  0  0  0  0  0
    6.4950    3.7500    0.0000 C   0  0  0  0  0  0  0  0  0  0  0  0
    5.1960    4.5000    0.0000 C   0  0  0  0  0  0  0  0  0  0  0  0
    3.8970    3.7500    0.0000 C   0  0  0  0  0  0  0  0  0  0  0  0
    3.8970    2.2500    0.0000 C   0  0  0  0  0  0  0  0  0  0  0  0
    3.8970   -0.7500    0.0000 N   0  0  0  0  0  0  0  0  0  0  0  0
    2.5980    0.0000    0.0000 C   0  0  0  0  0  0  0  0  0  0  0  0
    2.5980    1.5000    0.0000 O   0  0  0  0  0  0  0  0  0  0  0  0
    1.2990   -0.7500    0.0000 C   0  0  0  0  0  0  0  0  0  0  0  0
    0.0000    0.0000    0.0000 C   0  0  0  0  0  0  0  0  0  0  0  0
    0.0000    1.5000    0.0000 C   0  0  0  0  0  0  0  0  0  0  0  0
   -1.2990    2.2500    0.0000 C   0  0  0  0  0  0  0  0  0  0  0  0
   -2.5980    1.5000    0.0000 C   0  0  0  0  0  0  0  0  0  0  0  0
   -2.5980    0.0000    0.0000 C   0  0  0  0  0  0  0  0  0  0  0  0
   -1.2990   -0.7500    0.0000 C   0  0  0  0  0  0  0  0  0  0  0  0
   -1.2990   -2.2500    0.0000 N   0  0  0  0  0  0  0  0  0  0  0  0
    0.0000   -3.0000    0.0000 C   0  0  0  0  0  0  0  0  0  0  0  0
    1.2990   -2.2500    0.0000 C   0  0  0  0  0  0  0  0  0  0  0  0
    2.5980   -3.0000    0.0000 O   0  0  0  0  0  0  0  0  0  0  0  0
    0.0000   -4.5000    0.0000 C   0  0  0  0  0  0  0  0  0  0  0  0
   -1.2990   -5.2500    0.0000 C   0  0  0  0  0  0  0  0  0  0  0  0
   -1.2990   -6.7500    0.0000 C   0  0  0  0  0  0  0  0  0  0  0  0
    0.0000   -7.5000    0.0000 C   0  0  0  0  0  0  0  0  0  0  0  0
    1.2990   -6.7500    0.0000 C   0  0  0  0  0  0  0  0  0  0  0  0
    1.2990   -5.2500    0.0000 C   0  0  0  0  0  0  0  0  0  0  0  0
  1  2  1  0  0  0  0
  2  3  1  0  0  0  0
  3  4  1  0  0  0  0
  3 10  1  0  0  0  0
  4  5  1  0  0  0  0
  4  9  2  0  0  0  0
  5  6  2  0  0  0  0
  6  7  1  0  0  0  0
  7  8  2  0  0  0  0
  8  9  1  0  0  0  0
 10 11  1  0  0  0  0
 11 12  2  0  0  0  0
 11 13  1  0  0  0  0
 13 14  1  0  0  0  0
 13 22  2  0  0  0  0
 14 15  1  0  0  0  0
 14 19  2  0  0  0  0
 15 16  2  0  0  0  0
 16 17  1  0  0  0  0
 17 18  2  0  0  0  0
 18 19  1  0  0  0  0
 19 20  1  0  0  0  0
 20 21  2  0  0  0  0
 21 22  1  0  0  0  0
 21 24  1  0  0  0  0
 22 23  1  0  0  0  0
 24 25  1  0  0  0  0
 24 29  2  0  0  0  0
 25 26  2  0  0  0  0
 26 27  1  0  0  0  0
 27 28  2  0  0  0  0
 28 29  1  0  0  0  0
M  END
>  <n>
41

>  <SMILES>
Oc1c(nc2c(cccc2)c1C(=O)N[C@@H](CC)c1ccccc1)-c1ccccc1

>  <IC50>
<10

>  <Class>
1

>  <NAME>
AZ100

>  <INCHI_KEY>
BIAVGWDGIJKWRM-FQEVSTJZSA-N

>  <Reference>
Mitigating the inhibition of human Bile Salt Export Pump by drugs_ opportunities provided by physicochemical property modulation,  in-silico modeling and structural modification_SI

$$$$
AZ101
  MOE2013           2D

 22 24  0  0  1  0  0  0  0  0999 V2000
    0.1930   -3.8410    0.0000 C   0  0  0  0  0  0  0  0  0  0  0  0
    0.5050   -2.3740    0.0000 C   0  0  0  0  0  0  0  0  0  0  0  0
    1.1150   -1.0040    0.0000 O   0  0  0  0  0  0  0  0  0  0  0  0
    0.0000    0.0000    0.0000 C   0  0  3  0  0  0  0  0  0  0  0  0
    0.0000    1.5000    0.0000 C   0  0  0  0  0  0  0  0  0  0  0  0
   -1.2990    2.2500    0.0000 O   0  0  0  0  0  0  0  0  0  0  0  0
   -2.5980    1.5000    0.0000 C   0  0  2  0  0  0  0  0  0  0  0  0
   -2.5980    0.0000    0.0000 C   0  0  3  0  0  0  0  0  0  0  0  0
   -1.2990   -0.7500    0.0000 C   0  0  3  0  0  0  0  0  0  0  0  0
   -0.9870   -2.2170    0.0000 O   0  0  0  0  0  0  0  0  0  0  0  0
   -4.0250   -0.4640    0.0000 O   0  0  0  0  0  0  0  0  0  0  0  0
   -4.9060    0.7500    0.0000 C   0  0  0  0  0  0  0  0  0  0  0  0
   -4.0250    1.9640    0.0000 O   0  0  0  0  0  0  0  0  0  0  0  0
   -6.0210    1.7540    0.0000 C   0  0  0  0  0  0  0  0  0  0  0  0
   -6.0210   -0.2540    0.0000 C   0  0  0  0  0  0  0  0  0  0  0  0
   -2.7550    2.9920    0.0000 C   0  0  0  0  0  0  0  0  0  0  0  0
   -4.1250    3.6020    0.0000 O   0  0  0  0  0  0  0  0  0  0  0  0
   -4.2820    5.0940    0.0000 S   0  0  0  0  0  0  0  0  0  0  0  0
   -5.6520    5.7040    0.0000 O   0  0  0  0  0  0  0  0  0  0  0  0
   -2.7860    4.9890    0.0000 O   0  0  0  0  0  0  0  0  0  0  0  0
   -3.9190    6.5490    0.0000 N   0  0  0  0  0  0  0  0  0  0  0  0
    1.9310   -2.8380    0.0000 C   0  0  0  0  0  0  0  0  0  0  0  0
  1  2  1  0  0  0  0
  2  3  1  0  0  0  0
  2 10  1  0  0  0  0
  2 22  1  0  0  0  0
  3  4  1  0  0  0  0
  4  5  1  0  0  0  0
  4  9  1  0  0  0  0
  5  6  1  0  0  0  0
  6  7  1  0  0  0  0
  7  8  1  0  0  0  0
  7 13  1  0  0  0  0
  7 16  1  1  0  0  0
  8  9  1  0  0  0  0
  8 11  1  0  0  0  0
  9 10  1  0  0  0  0
 11 12  1  0  0  0  0
 12 13  1  0  0  0  0
 12 14  1  0  0  0  0
 12 15  1  0  0  0  0
 16 17  1  0  0  0  0
 17 18  1  0  0  0  0
 18 19  2  0  0  0  0
 18 20  2  0  0  0  0
 18 21  1  0  0  0  0
M  END
>  <n>
42

>  <SMILES>
S(OC[C@]12OC(O[C@H]1[C@@H]1OC(O[C@@H]1CO2)(C)C)(C)C)(=O)(=O)N

>  <IC50>
>1000

>  <Class>
0

>  <NAME>
AZ101

>  <INCHI_KEY>
KJADKKWYZYXHBB-XBWDGYHZSA-N

>  <Reference>
Mitigating the inhibition of human Bile Salt Export Pump by drugs_ opportunities provided by physicochemical property modulation,  in-silico modeling and structural modification_SI

$$$$
AZ105
  MOE2013           2D

 31 33  0  0  1  0  0  0  0  0999 V2000
    7.7440   -7.1180    0.0000 C   0  0  0  0  0  0  0  0  0  0  0  0
    6.2440   -7.1180    0.0000 C   0  0  0  0  0  0  0  0  0  0  0  0
    5.4940   -5.8190    0.0000 O   0  0  0  0  0  0  0  0  0  0  0  0
    3.9940   -5.8190    0.0000 C   0  0  0  0  0  0  0  0  0  0  0  0
    3.2440   -7.1180    0.0000 O   0  0  0  0  0  0  0  0  0  0  0  0
    3.2440   -4.5200    0.0000 C   0  0  3  0  0  0  0  0  0  0  0  0
    3.9940   -3.2210    0.0000 C   0  0  0  0  0  0  0  0  0  0  0  0
    5.4940   -3.2210    0.0000 C   0  0  0  0  0  0  0  0  0  0  0  0
    6.2440   -4.5200    0.0000 C   0  0  0  0  0  0  0  0  0  0  0  0
    5.4940   -5.8190    0.0000 C   0  0  0  0  0  0  0  0  0  0  0  0
    6.2440   -7.1180    0.0000 C   0  0  0  0  0  0  0  0  0  0  0  0
    7.7440   -7.1180    0.0000 C   0  0  0  0  0  0  0  0  0  0  0  0
    8.4940   -5.8190    0.0000 C   0  0  0  0  0  0  0  0  0  0  0  0
    7.7440   -4.5200    0.0000 C   0  0  0  0  0  0  0  0  0  0  0  0
    1.7440   -4.5200    0.0000 N   0  0  0  0  0  0  0  0  0  0  0  0
    0.9940   -3.2210    0.0000 C   0  0  3  0  0  0  0  0  0  0  0  0
    1.8380   -1.9810    0.0000 C   0  0  0  0  0  0  0  0  0  0  0  0
    1.3960   -0.5480    0.0000 C   0  0  0  0  0  0  0  0  0  0  0  0
    0.0000    0.0000    0.0000 C   0  0  0  0  0  0  0  0  0  0  0  0
    0.0000    1.5000    0.0000 C   0  0  0  0  0  0  0  0  0  0  0  0
   -1.2990    2.2500    0.0000 C   0  0  0  0  0  0  0  0  0  0  0  0
   -2.5980    1.5000    0.0000 C   0  0  0  0  0  0  0  0  0  0  0  0
   -2.5980    0.0000    0.0000 C   0  0  0  0  0  0  0  0  0  0  0  0
   -1.2990   -0.7500    0.0000 C   0  0  0  0  0  0  0  0  0  0  0  0
   -1.5230   -2.2330    0.0000 N   0  0  0  0  0  0  0  0  0  0  0  0
   -0.5020   -3.3330    0.0000 C   0  0  0  0  0  0  0  0  0  0  0  0
   -1.0500   -4.7290    0.0000 O   0  0  0  0  0  0  0  0  0  0  0  0
   -2.9560   -2.6750    0.0000 C   0  0  0  0  0  0  0  0  0  0  0  0
   -4.0560   -1.6550    0.0000 C   0  0  0  0  0  0  0  0  0  0  0  0
   -5.4890   -2.0970    0.0000 O   0  0  0  0  0  0  0  0  0  0  0  0
   -3.7220   -0.1930    0.0000 O   0  0  0  0  0  0  0  0  0  0  0  0
  1  2  1  0  0  0  0
  2  3  1  0  0  0  0
  3  4  1  0  0  0  0
  4  5  2  0  0  0  0
  4  6  1  0  0  0  0
  6  7  1  0  0  0  0
  6 15  1  0  0  0  0
  7  8  1  0  0  0  0
  8  9  1  0  0  0  0
  9 10  1  0  0  0  0
  9 14  2  0  0  0  0
 10 11  2  0  0  0  0
 11 12  1  0  0  0  0
 12 13  2  0  0  0  0
 13 14  1  0  0  0  0
 15 16  1  0  0  0  0
 16 17  1  0  0  0  0
 16 26  1  0  0  0  0
 17 18  1  0  0  0  0
 18 19  1  0  0  0  0
 19 20  1  0  0  0  0
 19 24  2  0  0  0  0
 20 21  2  0  0  0  0
 21 22  1  0  0  0  0
 22 23  2  0  0  0  0
 23 24  1  0  0  0  0
 24 25  1  0  0  0  0
 25 26  1  0  0  0  0
 25 28  1  0  0  0  0
 26 27  2  0  0  0  0
 28 29  1  0  0  0  0
 29 30  2  0  0  0  0
 29 31  1  0  0  0  0
M  END
>  <n>
46

>  <SMILES>
O=C1N(c2c(CCC1NC(CCc1ccccc1)C(OCC)=O)cccc2)CC(O)=O

>  <IC50>
74.86

>  <Class>
0

>  <NAME>
AZ105

>  <INCHI_KEY>
XPCFTKFZXHTYIP-UHFFFAOYSA-N

>  <Reference>
Mitigating the inhibition of human Bile Salt Export Pump by drugs_ opportunities provided by physicochemical property modulation,  in-silico modeling and structural modification_SI

$$$$
AZ106
  MOE2013           2D

 21 23  0  0  1  0  0  0  0  0999 V2000
    2.5980   -3.0000    0.0000 C   0  0  0  0  0  0  0  0  0  0  0  0
    1.2990   -2.2500    0.0000 N   0  0  0  0  0  0  0  0  0  0  0  0
    0.0000   -3.0000    0.0000 C   0  0  0  0  0  0  0  0  0  0  0  0
    1.2990   -0.7500    0.0000 C   0  0  0  0  0  0  0  0  0  0  0  0
    0.0000    0.0000    0.0000 C   0  0  0  0  0  0  0  0  0  0  0  0
    0.0000    1.5000    0.0000 C   0  0  0  0  0  0  0  0  0  0  0  0
    1.2990    2.2500    0.0000 N   0  0  0  0  0  0  0  0  0  0  0  0
    2.5980    1.5000    0.0000 C   0  0  0  0  0  0  0  0  0  0  0  0
    2.5980    0.0000    0.0000 N   0  0  0  0  0  0  0  0  0  0  0  0
   -1.4270    1.9640    0.0000 N   0  0  0  0  0  0  0  0  0  0  0  0
   -2.3080    0.7500    0.0000 C   0  0  0  0  0  0  0  0  0  0  0  0
   -1.4270   -0.4640    0.0000 N   0  0  0  0  0  0  0  0  0  0  0  0
   -1.8900    3.3900    0.0000 C   0  0  3  0  0  0  0  0  0  0  0  0
   -1.0080    4.6040    0.0000 C   0  0  3  0  0  0  0  0  0  0  0  0
   -1.8900    5.8170    0.0000 C   0  0  3  0  0  0  0  0  0  0  0  0
   -3.3170    5.3540    0.0000 C   0  0  3  0  0  0  0  0  0  0  0  0
   -3.3170    3.8540    0.0000 O   0  0  0  0  0  0  0  0  0  0  0  0
   -4.5300    6.2350    0.0000 C   0  0  0  0  0  0  0  0  0  0  0  0
   -4.3730    7.7270    0.0000 O   0  0  0  0  0  0  0  0  0  0  0  0
   -1.4270    7.2440    0.0000 N   0  0  0  0  0  0  0  0  0  0  0  0
    0.4920    4.6040    0.0000 O   0  0  0  0  0  0  0  0  0  0  0  0
  1  2  1  0  0  0  0
  2  3  1  0  0  0  0
  2  4  1  0  0  0  0
  4  5  1  0  0  0  0
  4  9  2  0  0  0  0
  5  6  2  0  0  0  0
  5 12  1  0  0  0  0
  6  7  1  0  0  0  0
  6 10  1  0  0  0  0
  7  8  2  0  0  0  0
  8  9  1  0  0  0  0
 10 11  1  0  0  0  0
 10 13  1  0  0  0  0
 11 12  2  0  0  0  0
 13 14  1  0  0  0  0
 13 17  1  0  0  0  0
 14 15  1  0  0  0  0
 14 21  1  0  0  0  0
 15 16  1  0  0  0  0
 15 20  1  0  0  0  0
 16 17  1  0  0  0  0
 16 18  1  0  0  0  0
 18 19  1  0  0  0  0
M  END
>  <n>
47

>  <SMILES>
O1C(CO)C(N)C(O)C1n1c2ncnc(N(C)C)c2nc1

>  <IC50>
>1000

>  <Class>
0

>  <NAME>
AZ106

>  <INCHI_KEY>
RYSMHWILUNYBFW-UHFFFAOYSA-N

>  <Reference>
Mitigating the inhibition of human Bile Salt Export Pump by drugs_ opportunities provided by physicochemical property modulation,  in-silico modeling and structural modification_SI

$$$$
AZ107
  MOE2013           2D

 23 25  0  0  1  0  0  0  0  0999 V2000
    7.7940    1.5000    0.0000 C   0  0  0  0  0  0  0  0  0  0  0  0
    6.4950    2.2500    0.0000 C   0  0  0  0  0  0  0  0  0  0  0  0
    5.1960    1.5000    0.0000 C   0  0  0  0  0  0  0  0  0  0  0  0
    3.8970    2.2500    0.0000 S   0  0  0  0  0  0  0  0  0  0  0  0
    2.5980    1.5000    0.0000 C   0  0  0  0  0  0  0  0  0  0  0  0
    2.5980    0.0000    0.0000 N   0  0  0  0  0  0  0  0  0  0  0  0
    1.2990   -0.7500    0.0000 C   0  0  0  0  0  0  0  0  0  0  0  0
    0.0000    0.0000    0.0000 C   0  0  0  0  0  0  0  0  0  0  0  0
    0.0000    1.5000    0.0000 C   0  0  0  0  0  0  0  0  0  0  0  0
    1.2990    2.2500    0.0000 N   0  0  0  0  0  0  0  0  0  0  0  0
   -1.4270    1.9640    0.0000 N   0  0  0  0  0  0  0  0  0  0  0  0
   -2.3080    0.7500    0.0000 C   0  0  0  0  0  0  0  0  0  0  0  0
   -1.4270   -0.4640    0.0000 N   0  0  0  0  0  0  0  0  0  0  0  0
   -1.8900    3.3900    0.0000 C   0  0  3  0  0  0  0  0  0  0  0  0
   -1.0080    4.6040    0.0000 C   0  0  3  0  0  0  0  0  0  0  0  0
   -1.8900    5.8170    0.0000 C   0  0  3  0  0  0  0  0  0  0  0  0
   -3.3170    5.3540    0.0000 C   0  0  3  0  0  0  0  0  0  0  0  0
   -3.3170    3.8540    0.0000 O   0  0  0  0  0  0  0  0  0  0  0  0
   -4.5300    6.2350    0.0000 C   0  0  0  0  0  0  0  0  0  0  0  0
   -4.3730    7.7270    0.0000 O   0  0  0  0  0  0  0  0  0  0  0  0
   -1.4270    7.2440    0.0000 O   0  0  0  0  0  0  0  0  0  0  0  0
    0.4920    4.6040    0.0000 O   0  0  0  0  0  0  0  0  0  0  0  0
    1.2990   -2.2500    0.0000 N   0  0  0  0  0  0  0  0  0  0  0  0
  1  2  1  0  0  0  0
  2  3  1  0  0  0  0
  3  4  1  0  0  0  0
  4  5  1  0  0  0  0
  5  6  1  0  0  0  0
  5 10  2  0  0  0  0
  6  7  2  0  0  0  0
  7  8  1  0  0  0  0
  7 23  1  0  0  0  0
  8  9  2  0  0  0  0
  8 13  1  0  0  0  0
  9 10  1  0  0  0  0
  9 11  1  0  0  0  0
 11 12  1  0  0  0  0
 11 14  1  0  0  0  0
 12 13  2  0  0  0  0
 14 15  1  0  0  0  0
 14 18  1  0  0  0  0
 15 16  1  0  0  0  0
 15 22  1  0  0  0  0
 16 17  1  0  0  0  0
 16 21  1  0  0  0  0
 17 18  1  0  0  0  0
 17 19  1  0  0  0  0
 19 20  1  0  0  0  0
M  END
>  <n>
48

>  <SMILES>
S(CCC)c1nc(N)c2ncn(c2n1)[C@@H]1O[C@H](CO)[C@@H](O)[C@H]1O

>  <IC50>
>1000

>  <Class>
0

>  <NAME>
AZ107

>  <INCHI_KEY>
RZECJIGAYNYQAD-WOUKDFQISA-N

>  <Reference>
Mitigating the inhibition of human Bile Salt Export Pump by drugs_ opportunities provided by physicochemical property modulation,  in-silico modeling and structural modification_SI

$$$$
AZ109
  MOE2013           2D

 32 35  0  0  1  0  0  0  0  0999 V2000
    3.6390   -3.0650    0.0000 C   0  0  0  0  0  0  0  0  0  0  0  0
    2.1720   -3.3770    0.0000 C   0  0  0  0  0  0  0  0  0  0  0  0
    1.0570   -2.3740    0.0000 C   0  0  0  0  0  0  0  0  0  0  0  0
   -0.2420   -3.1240    0.0000 C   0  0  0  0  0  0  0  0  0  0  0  0
    0.0700   -4.5910    0.0000 N   0  0  0  0  0  0  0  0  0  0  0  0
    1.5610   -4.7480    0.0000 N   0  0  0  0  0  0  0  0  0  0  0  0
   -1.6130   -2.5130    0.0000 C   0  0  0  0  0  0  0  0  0  0  0  0
    1.2140   -0.8820    0.0000 C   0  0  0  0  0  0  0  0  0  0  0  0
    0.0000    0.0000    0.0000 C   0  0  0  0  0  0  0  0  0  0  0  0
    0.0000    1.5000    0.0000 C   0  0  0  0  0  0  0  0  0  0  0  0
   -1.4270    1.9640    0.0000 C   0  0  0  0  0  0  0  0  0  0  0  0
   -2.0370    3.3340    0.0000 C   0  0  0  0  0  0  0  0  0  0  0  0
   -1.1550    4.5470    0.0000 O   0  0  0  0  0  0  0  0  0  0  0  0
   -3.5280    3.4910    0.0000 N   0  0  0  0  0  0  0  0  0  0  0  0
   -4.4100    2.2770    0.0000 C   0  0  0  0  0  0  0  0  0  0  0  0
   -5.9020    2.4340    0.0000 O   0  0  0  0  0  0  0  0  0  0  0  0
   -3.8000    0.9070    0.0000 N   0  0  0  0  0  0  0  0  0  0  0  0
   -2.3080    0.7500    0.0000 C   0  0  0  0  0  0  0  0  0  0  0  0
   -1.4270   -0.4640    0.0000 S   0  0  0  0  0  0  0  0  0  0  0  0
   -4.6820   -0.3070    0.0000 C   0  0  0  0  0  0  0  0  0  0  0  0
   -6.1740   -0.1500    0.0000 C   0  0  0  0  0  0  0  0  0  0  0  0
   -7.0550   -1.3640    0.0000 C   0  0  0  0  0  0  0  0  0  0  0  0
   -6.7840    1.2200    0.0000 C   0  0  0  0  0  0  0  0  0  0  0  0
   -4.1390    4.8610    0.0000 C   0  0  0  0  0  0  0  0  0  0  0  0
    1.2140    2.3820    0.0000 C   0  0  0  0  0  0  0  0  0  0  0  0
    2.5840    1.7720    0.0000 O   0  0  0  0  0  0  0  0  0  0  0  0
    1.0570    3.8740    0.0000 N   0  0  0  0  0  0  0  0  0  0  0  0
    2.1720    4.8770    0.0000 C   0  0  0  0  0  0  0  0  0  0  0  0
    1.5610    6.2480    0.0000 C   0  0  3  0  0  0  0  0  0  0  0  0
    0.0700    6.0910    0.0000 C   0  0  0  0  0  0  0  0  0  0  0  0
   -0.2420    4.6240    0.0000 O   0  0  0  0  0  0  0  0  0  0  0  0
    2.3110    7.5460    0.0000 O   0  0  0  0  0  0  0  0  0  0  0  0
  1  2  1  0  0  0  0
  2  3  2  0  0  0  0
  2  6  1  0  0  0  0
  3  4  1  0  0  0  0
  3  8  1  0  0  0  0
  4  5  2  0  0  0  0
  4  7  1  0  0  0  0
  5  6  1  0  0  0  0
  8  9  1  0  0  0  0
  9 10  2  0  0  0  0
  9 19  1  0  0  0  0
 10 11  1  0  0  0  0
 10 25  1  0  0  0  0
 11 12  1  0  0  0  0
 11 18  2  0  0  0  0
 12 13  2  0  0  0  0
 12 14  1  0  0  0  0
 14 15  1  0  0  0  0
 14 24  1  0  0  0  0
 15 16  2  0  0  0  0
 15 17  1  0  0  0  0
 17 18  1  0  0  0  0
 17 20  1  0  0  0  0
 18 19  1  0  0  0  0
 20 21  1  0  0  0  0
 21 22  1  0  0  0  0
 21 23  1  0  0  0  0
 25 26  2  0  0  0  0
 25 27  1  0  0  0  0
 27 28  1  0  0  0  0
 27 31  1  0  0  0  0
 28 29  1  0  0  0  0
 29 30  1  0  0  0  0
 29 32  1  0  0  0  0
 30 31  1  0  0  0  0
M  END
>  <n>
50

>  <SMILES>
s1c2N(CC(C)C)C(=O)N(C)C(=O)c2c(C(=O)N2OC[C@@H](O)C2)c1Cc1c(n[nH]c1C)C

>  <IC50>
247.8

>  <Class>
0

>  <NAME>
AZ109

>  <INCHI_KEY>
ISIVOJWVBJIOFM-ZDUSSCGKSA-N

>  <Reference>
Mitigating the inhibition of human Bile Salt Export Pump by drugs_ opportunities provided by physicochemical property modulation,  in-silico modeling and structural modification_SI

$$$$
AZ110
  MOE2013           2D

 31 34  0  0  1  0  0  0  0  0999 V2000
    3.6390   -3.0650    0.0000 C   0  0  0  0  0  0  0  0  0  0  0  0
    2.1720   -3.3770    0.0000 C   0  0  0  0  0  0  0  0  0  0  0  0
    1.0570   -2.3740    0.0000 C   0  0  0  0  0  0  0  0  0  0  0  0
   -0.2420   -3.1240    0.0000 C   0  0  0  0  0  0  0  0  0  0  0  0
    0.0700   -4.5910    0.0000 N   0  0  0  0  0  0  0  0  0  0  0  0
    1.5610   -4.7480    0.0000 N   0  0  0  0  0  0  0  0  0  0  0  0
   -1.6130   -2.5130    0.0000 C   0  0  0  0  0  0  0  0  0  0  0  0
    1.2140   -0.8820    0.0000 C   0  0  0  0  0  0  0  0  0  0  0  0
    0.0000    0.0000    0.0000 C   0  0  0  0  0  0  0  0  0  0  0  0
    0.0000    1.5000    0.0000 C   0  0  0  0  0  0  0  0  0  0  0  0
   -1.4270    1.9640    0.0000 C   0  0  0  0  0  0  0  0  0  0  0  0
   -2.0370    3.3340    0.0000 C   0  0  0  0  0  0  0  0  0  0  0  0
   -1.1550    4.5470    0.0000 O   0  0  0  0  0  0  0  0  0  0  0  0
   -3.5280    3.4910    0.0000 N   0  0  0  0  0  0  0  0  0  0  0  0
   -4.4100    2.2770    0.0000 C   0  0  0  0  0  0  0  0  0  0  0  0
   -5.9020    2.4340    0.0000 O   0  0  0  0  0  0  0  0  0  0  0  0
   -3.8000    0.9070    0.0000 N   0  0  0  0  0  0  0  0  0  0  0  0
   -2.3080    0.7500    0.0000 C   0  0  0  0  0  0  0  0  0  0  0  0
   -1.4270   -0.4640    0.0000 S   0  0  0  0  0  0  0  0  0  0  0  0
   -4.6820   -0.3070    0.0000 C   0  0  0  0  0  0  0  0  0  0  0  0
   -6.1740   -0.1500    0.0000 C   0  0  0  0  0  0  0  0  0  0  0  0
   -4.0720   -1.6770    0.0000 C   0  0  0  0  0  0  0  0  0  0  0  0
   -4.1390    4.8610    0.0000 C   0  0  0  0  0  0  0  0  0  0  0  0
    1.2140    2.3820    0.0000 C   0  0  0  0  0  0  0  0  0  0  0  0
    2.5840    1.7720    0.0000 O   0  0  0  0  0  0  0  0  0  0  0  0
    1.0570    3.8740    0.0000 N   0  0  0  0  0  0  0  0  0  0  0  0
    2.1720    4.8770    0.0000 C   0  0  0  0  0  0  0  0  0  0  0  0
    1.5610    6.2480    0.0000 C   0  0  3  0  0  0  0  0  0  0  0  0
    0.0700    6.0910    0.0000 C   0  0  0  0  0  0  0  0  0  0  0  0
   -0.2420    4.6240    0.0000 O   0  0  0  0  0  0  0  0  0  0  0  0
    2.3110    7.5460    0.0000 O   0  0  0  0  0  0  0  0  0  0  0  0
  1  2  1  0  0  0  0
  2  3  2  0  0  0  0
  2  6  1  0  0  0  0
  3  4  1  0  0  0  0
  3  8  1  0  0  0  0
  4  5  2  0  0  0  0
  4  7  1  0  0  0  0
  5  6  1  0  0  0  0
  8  9  1  0  0  0  0
  9 10  2  0  0  0  0
  9 19  1  0  0  0  0
 10 11  1  0  0  0  0
 10 24  1  0  0  0  0
 11 12  1  0  0  0  0
 11 18  2  0  0  0  0
 12 13  2  0  0  0  0
 12 14  1  0  0  0  0
 14 15  1  0  0  0  0
 14 23  1  0  0  0  0
 15 16  2  0  0  0  0
 15 17  1  0  0  0  0
 17 18  1  0  0  0  0
 17 20  1  0  0  0  0
 18 19  1  0  0  0  0
 20 21  1  0  0  0  0
 20 22  1  0  0  0  0
 24 25  2  0  0  0  0
 24 26  1  0  0  0  0
 26 27  1  0  0  0  0
 26 30  1  0  0  0  0
 27 28  1  0  0  0  0
 28 29  1  0  0  0  0
 28 31  1  0  0  0  0
 29 30  1  0  0  0  0
M  END
>  <n>
52

>  <SMILES>
s1c2N(C(C)C)C(=O)N(C)C(=O)c2c(C(=O)N2OC[C@@H](O)C2)c1Cc1c(n[nH]c1C)C

>  <IC50>
703

>  <Class>
0

>  <NAME>
AZ110

>  <INCHI_KEY>
PYLXXPJXPHUENG-LBPRGKRZSA-N

>  <Reference>
Mitigating the inhibition of human Bile Salt Export Pump by drugs_ opportunities provided by physicochemical property modulation,  in-silico modeling and structural modification_SI

$$$$
AZ111
  MOE2013           2D

 25 28  0  0  1  0  0  0  0  0999 V2000
    8.6620   -4.2770    0.0000 C   0  0  0  0  0  0  0  0  0  0  0  0
    7.1620   -4.2770    0.0000 C   0  0  0  0  0  0  0  0  0  0  0  0
    6.2810   -3.0630    0.0000 C   0  0  0  0  0  0  0  0  0  0  0  0
    4.8540   -3.5270    0.0000 C   0  0  0  0  0  0  0  0  0  0  0  0
    4.8540   -5.0270    0.0000 O   0  0  0  0  0  0  0  0  0  0  0  0
    6.2810   -5.4900    0.0000 N   0  0  0  0  0  0  0  0  0  0  0  0
    3.6410   -2.6450    0.0000 C   0  0  0  0  0  0  0  0  0  0  0  0
    3.7970   -1.1530    0.0000 C   0  0  0  0  0  0  0  0  0  0  0  0
    2.5840   -0.2720    0.0000 C   0  0  0  0  0  0  0  0  0  0  0  0
    1.2140   -0.8820    0.0000 C   0  0  0  0  0  0  0  0  0  0  0  0
    1.0570   -2.3740    0.0000 C   0  0  0  0  0  0  0  0  0  0  0  0
    2.2700   -3.2550    0.0000 C   0  0  0  0  0  0  0  0  0  0  0  0
    2.1140   -4.7470    0.0000 F   0  0  0  0  0  0  0  0  0  0  0  0
    0.0000    0.0000    0.0000 N   0  0  0  0  0  0  0  0  0  0  0  0
    0.0000    1.5000    0.0000 C   0  0  0  0  0  0  0  0  0  0  0  0
   -1.4270    1.9640    0.0000 C   0  0  3  0  0  0  0  0  0  0  0  0
   -2.3080    0.7500    0.0000 O   0  0  0  0  0  0  0  0  0  0  0  0
   -1.4270   -0.4640    0.0000 C   0  0  0  0  0  0  0  0  0  0  0  0
   -1.8900   -1.8900    0.0000 O   0  0  0  0  0  0  0  0  0  0  0  0
   -1.8900    3.3900    0.0000 C   0  0  0  0  0  0  0  0  0  0  0  0
   -3.3570    3.7020    0.0000 N   0  0  0  0  0  0  0  0  0  0  0  0
   -3.9670    5.0720    0.0000 C   0  0  0  0  0  0  0  0  0  0  0  0
   -5.4590    4.9160    0.0000 C   0  0  0  0  0  0  0  0  0  0  0  0
   -5.7710    3.4480    0.0000 N   0  0  0  0  0  0  0  0  0  0  0  0
   -4.4720    2.6980    0.0000 N   0  0  0  0  0  0  0  0  0  0  0  0
  1  2  1  0  0  0  0
  2  3  1  0  0  0  0
  2  6  2  0  0  0  0
  3  4  2  0  0  0  0
  4  5  1  0  0  0  0
  4  7  1  0  0  0  0
  5  6  1  0  0  0  0
  7  8  1  0  0  0  0
  7 12  2  0  0  0  0
  8  9  2  0  0  0  0
  9 10  1  0  0  0  0
 10 11  2  0  0  0  0
 10 14  1  0  0  0  0
 11 12  1  0  0  0  0
 12 13  1  0  0  0  0
 14 15  1  0  0  0  0
 14 18  1  0  0  0  0
 15 16  1  0  0  0  0
 16 17  1  0  0  0  0
 16 20  1  0  0  0  0
 17 18  1  0  0  0  0
 18 19  2  0  0  0  0
 20 21  1  0  0  0  0
 21 22  1  0  0  0  0
 21 25  1  0  0  0  0
 22 23  2  0  0  0  0
 23 24  1  0  0  0  0
 24 25  2  0  0  0  0
M  END
>  <n>
53

>  <SMILES>
Fc1cc(N2C[C@@H](OC2=O)Cn2nncc2)ccc1-c1onc(c1)C

>  <IC50>
>1000

>  <Class>
0

>  <NAME>
AZ111

>  <INCHI_KEY>
DRXNKVLCADIDHI-LBPRGKRZSA-N

>  <Reference>
Mitigating the inhibition of human Bile Salt Export Pump by drugs_ opportunities provided by physicochemical property modulation,  in-silico modeling and structural modification_SI

$$$$
AZ112
  MOE2013           2D

 23 23  0  0  1  0  0  0  0  0999 V2000
    1.2990   -0.7500    0.0000 C   0  0  0  0  0  0  0  0  0  0  0  0
    0.0000    0.0000    0.0000 C   0  0  3  0  0  0  0  0  0  0  0  0
    0.0000    1.5000    0.0000 C   0  0  3  0  0  0  0  0  0  0  0  0
   -1.2990    2.2500    0.0000 C   0  0  3  0  0  0  0  0  0  0  0  0
   -2.5980    1.5000    0.0000 C   0  0  3  0  0  0  0  0  0  0  0  0
   -2.5980    0.0000    0.0000 C   0  0  3  0  0  0  0  0  0  0  0  0
   -1.2990   -0.7500    0.0000 O   0  0  0  0  0  0  0  0  0  0  0  0
   -3.8970   -0.7500    0.0000 O   0  0  0  0  0  0  0  0  0  0  0  0
   -3.8970   -2.2500    0.0000 C   0  0  3  0  0  0  0  0  0  0  0  0
   -2.5980   -3.0000    0.0000 C   0  0  3  0  0  0  0  0  0  0  0  0
   -2.5980   -4.5000    0.0000 C   0  0  0  0  0  0  0  0  0  0  0  0
   -1.2990   -5.2500    0.0000 O   0  0  0  0  0  0  0  0  0  0  0  0
   -1.2990   -2.2500    0.0000 O   0  0  0  0  0  0  0  0  0  0  0  0
   -5.1960   -3.0000    0.0000 C   0  0  3  0  0  0  0  0  0  0  0  0
   -5.1960   -4.5000    0.0000 C   0  0  3  0  0  0  0  0  0  0  0  0
   -6.4950   -5.2500    0.0000 C   0  0  0  0  0  0  0  0  0  0  0  0
   -6.4950   -6.7500    0.0000 O   0  0  0  0  0  0  0  0  0  0  0  0
   -3.8970   -5.2500    0.0000 O   0  0  0  0  0  0  0  0  0  0  0  0
   -6.4950   -2.2500    0.0000 O   0  0  0  0  0  0  0  0  0  0  0  0
   -3.8970    2.2500    0.0000 O   0  0  0  0  0  0  0  0  0  0  0  0
   -1.2990    3.7500    0.0000 O   0  0  0  0  0  0  0  0  0  0  0  0
    1.2990    2.2500    0.0000 O   0  0  0  0  0  0  0  0  0  0  0  0
    2.5980    0.0000    0.0000 O   0  0  0  0  0  0  0  0  0  0  0  0
  1  2  1  0  0  0  0
  1 23  1  0  0  0  0
  2  3  1  0  0  0  0
  2  7  1  0  0  0  0
  3  4  1  0  0  0  0
  3 22  1  0  0  0  0
  4  5  1  0  0  0  0
  4 21  1  0  0  0  0
  5  6  1  0  0  0  0
  5 20  1  0  0  0  0
  6  7  1  0  0  0  0
  6  8  1  0  0  0  0
  8  9  1  0  0  0  0
  9 10  1  0  0  0  0
  9 14  1  0  0  0  0
 10 11  1  0  0  0  0
 10 13  1  0  0  0  0
 11 12  1  0  0  0  0
 14 15  1  0  0  0  0
 14 19  1  0  0  0  0
 15 16  1  0  0  0  0
 15 18  1  0  0  0  0
 16 17  1  0  0  0  0
M  END
>  <n>
54

>  <SMILES>
O1[C@H](CO)[C@H](O)[C@H](O)[C@@H](O)[C@@H]1O[C@H]([C@H](O)CO)[C@H](O)[C@@H](O)CO

>  <IC50>
>1000

>  <Class>
0

>  <NAME>
AZ112

>  <INCHI_KEY>
VQHSOMBJVWLPSR-JVCRWLNRSA-N

>  <Reference>
Mitigating the inhibition of human Bile Salt Export Pump by drugs_ opportunities provided by physicochemical property modulation,  in-silico modeling and structural modification_SI

$$$$
AZ113
  MOE2013           2D

 20 20  0  0  0  0  0  0  0  0999 V2000
    0.0000    0.0000    0.0000 C   0  0  0  0  0  0  0  0  0  0  0  0
    0.0000    1.5000    0.0000 C   0  0  0  0  0  0  0  0  0  0  0  0
   -1.2990    2.2500    0.0000 C   0  0  0  0  0  0  0  0  0  0  0  0
   -2.5980    1.5000    0.0000 C   0  0  0  0  0  0  0  0  0  0  0  0
   -2.5980    0.0000    0.0000 C   0  0  0  0  0  0  0  0  0  0  0  0
   -1.2990   -0.7500    0.0000 C   0  0  0  0  0  0  0  0  0  0  0  0
   -3.8970   -0.7500    0.0000 C   0  0  0  0  0  0  0  0  0  0  0  0
   -5.1960    0.0000    0.0000 O   0  0  0  0  0  0  0  0  0  0  0  0
   -3.8970   -2.2500    0.0000 N   0  0  0  0  0  0  0  0  0  0  0  0
   -5.1960   -3.0000    0.0000 C   0  0  0  0  0  0  0  0  0  0  0  0
   -5.1960   -4.5000    0.0000 C   0  0  0  0  0  0  0  0  0  0  0  0
   -6.4950   -5.2500    0.0000 C   0  0  0  0  0  0  0  0  0  0  0  0
   -6.4950   -6.7500    0.0000 C   0  0  0  0  0  0  0  0  0  0  0  0
   -7.7940   -7.5000    0.0000 C   0  0  0  0  0  0  0  0  0  0  0  0
   -7.7940   -9.0000    0.0000 C   0  0  0  0  0  0  0  0  0  0  0  0
   -9.0930   -9.7500    0.0000 C   0  0  0  0  0  0  0  0  0  0  0  0
   -9.0930  -11.2500    0.0000 C   0  0  0  0  0  0  0  0  0  0  0  0
  -10.3920  -12.0000    0.0000 O   0  0  0  0  0  0  0  0  0  0  0  0
   -7.7940  -12.0000    0.0000 O   0  0  0  0  0  0  0  0  0  0  0  0
   -3.8970    2.2500    0.0000 O   0  0  0  0  0  0  0  0  0  0  0  0
  1  2  1  0  0  0  0
  1  6  2  0  0  0  0
  2  3  2  0  0  0  0
  3  4  1  0  0  0  0
  4  5  2  0  0  0  0
  4 20  1  0  0  0  0
  5  6  1  0  0  0  0
  5  7  1  0  0  0  0
  7  8  2  0  0  0  0
  7  9  1  0  0  0  0
  9 10  1  0  0  0  0
 10 11  1  0  0  0  0
 11 12  1  0  0  0  0
 12 13  1  0  0  0  0
 13 14  1  0  0  0  0
 14 15  1  0  0  0  0
 15 16  1  0  0  0  0
 16 17  1  0  0  0  0
 17 18  2  0  0  0  0
 17 19  1  0  0  0  0
M  END
>  <n>
55

>  <SMILES>
Oc1ccccc1C(=O)NCCCCCCCC(O)=O

>  <IC50>
>750.9

>  <Class>
0

>  <NAME>
AZ113

>  <INCHI_KEY>
NJEKDCUDSORUJA-UHFFFAOYSA-N

>  <Reference>
Mitigating the inhibition of human Bile Salt Export Pump by drugs_ opportunities provided by physicochemical property modulation,  in-silico modeling and structural modification_SI

$$$$
AZ114
  MOE2013           2D

 31 33  0  0  0  0  0  0  0  0999 V2000
   10.1380  -15.3940    0.0000 C   0  0  0  0  0  0  0  0  0  0  0  0
    8.9240  -14.5120    0.0000 C   0  0  0  0  0  0  0  0  0  0  0  0
    9.0810  -13.0210    0.0000 O   0  0  0  0  0  0  0  0  0  0  0  0
    7.8680  -12.1390    0.0000 C   0  0  0  0  0  0  0  0  0  0  0  0
    8.0240  -10.6470    0.0000 C   0  0  0  0  0  0  0  0  0  0  0  0
    6.8110   -9.7650    0.0000 N   0  0  0  0  0  0  0  0  0  0  0  0
    6.9680   -8.2740    0.0000 S   0  0  0  0  0  0  0  0  0  0  0  0
    8.4100   -8.6870    0.0000 O   0  0  0  0  0  0  0  0  0  0  0  0
    7.6250   -6.9250    0.0000 O   0  0  0  0  0  0  0  0  0  0  0  0
    5.7540   -7.3920    0.0000 C   0  0  0  0  0  0  0  0  0  0  0  0
    5.9110   -5.9000    0.0000 C   0  0  0  0  0  0  0  0  0  0  0  0
    4.6970   -5.0180    0.0000 C   0  0  0  0  0  0  0  0  0  0  0  0
    3.3270   -5.6290    0.0000 C   0  0  0  0  0  0  0  0  0  0  0  0
    3.1700   -7.1200    0.0000 C   0  0  0  0  0  0  0  0  0  0  0  0
    4.3840   -8.0020    0.0000 C   0  0  0  0  0  0  0  0  0  0  0  0
    2.1140   -4.7470    0.0000 N   0  0  0  0  0  0  0  0  0  0  0  0
    2.2700   -3.2550    0.0000 C   0  0  0  0  0  0  0  0  0  0  0  0
    3.6410   -2.6450    0.0000 N   0  0  0  0  0  0  0  0  0  0  0  0
    3.7970   -1.1530    0.0000 C   0  0  0  0  0  0  0  0  0  0  0  0
    2.5840   -0.2720    0.0000 C   0  0  0  0  0  0  0  0  0  0  0  0
    1.2140   -0.8820    0.0000 C   0  0  0  0  0  0  0  0  0  0  0  0
    1.0570   -2.3740    0.0000 N   0  0  0  0  0  0  0  0  0  0  0  0
    0.0000    0.0000    0.0000 C   0  0  0  0  0  0  0  0  0  0  0  0
    0.0000    1.5000    0.0000 C   0  0  0  0  0  0  0  0  0  0  0  0
   -1.4270    1.9640    0.0000 N   0  0  0  0  0  0  0  0  0  0  0  0
   -2.3080    0.7500    0.0000 C   0  0  0  0  0  0  0  0  0  0  0  0
   -1.4270   -0.4640    0.0000 N   0  0  0  0  0  0  0  0  0  0  0  0
   -1.8900   -1.8900    0.0000 C   0  0  0  0  0  0  0  0  0  0  0  0
   -3.3570   -2.2020    0.0000 C   0  0  0  0  0  0  0  0  0  0  0  0
   -0.8860   -3.0050    0.0000 C   0  0  0  0  0  0  0  0  0  0  0  0
   -3.8080    0.7500    0.0000 C   0  0  0  0  0  0  0  0  0  0  0  0
  1  2  1  0  0  0  0
  2  3  1  0  0  0  0
  3  4  1  0  0  0  0
  4  5  1  0  0  0  0
  5  6  1  0  0  0  0
  6  7  1  0  0  0  0
  7  8  2  0  0  0  0
  7  9  2  0  0  0  0
  7 10  1  0  0  0  0
 10 11  1  0  0  0  0
 10 15  2  0  0  0  0
 11 12  2  0  0  0  0
 12 13  1  0  0  0  0
 13 14  2  0  0  0  0
 13 16  1  0  0  0  0
 14 15  1  0  0  0  0
 16 17  1  0  0  0  0
 17 18  1  0  0  0  0
 17 22  2  0  0  0  0
 18 19  2  0  0  0  0
 19 20  1  0  0  0  0
 20 21  2  0  0  0  0
 21 22  1  0  0  0  0
 21 23  1  0  0  0  0
 23 24  2  0  0  0  0
 23 27  1  0  0  0  0
 24 25  1  0  0  0  0
 25 26  2  0  0  0  0
 26 27  1  0  0  0  0
 26 31  1  0  0  0  0
 27 28  1  0  0  0  0
 28 29  1  0  0  0  0
 28 30  1  0  0  0  0
M  END
>  <n>
56

>  <SMILES>
S(=O)(=O)(NCCOCC)c1ccc(Nc2nc(ccn2)-c2n(C(C)C)c(nc2)C)cc1

>  <IC50>
<10

>  <Class>
1

>  <NAME>
AZ114

>  <INCHI_KEY>
UWAMBTHTEQFJIL-UHFFFAOYSA-N

>  <Reference>
Mitigating the inhibition of human Bile Salt Export Pump by drugs_ opportunities provided by physicochemical property modulation,  in-silico modeling and structural modification_SI

$$$$
AZ115
  MOE2013           2D

 19 20  0  0  0  0  0  0  0  0999 V2000
    3.8970   -9.7500    0.0000 C   0  0  0  0  0  0  0  0  0  0  0  0
    2.5980   -9.0000    0.0000 O   0  0  0  0  0  0  0  0  0  0  0  0
    2.5980   -7.5000    0.0000 C   0  0  0  0  0  0  0  0  0  0  0  0
    3.8970   -6.7500    0.0000 O   0  0  0  0  0  0  0  0  0  0  0  0
    1.2990   -6.7500    0.0000 N   0  0  0  0  0  0  0  0  0  0  0  0
    1.2990   -5.2500    0.0000 N   0  0  0  0  0  0  0  0  0  0  0  0
    0.0000   -4.5000    0.0000 C   0  0  0  0  0  0  0  0  0  0  0  0
    0.0000   -3.0000    0.0000 C   0  0  0  0  0  0  0  0  0  0  0  0
    1.2990   -2.2500    0.0000 C   0  0  0  0  0  0  0  0  0  0  0  0
    1.2990   -0.7500    0.0000 N   0  3  0  0  0  0  0  0  0  0  0  0
    0.0000    0.0000    0.0000 C   0  0  0  0  0  0  0  0  0  0  0  0
    0.0000    1.5000    0.0000 C   0  0  0  0  0  0  0  0  0  0  0  0
   -1.2990    2.2500    0.0000 C   0  0  0  0  0  0  0  0  0  0  0  0
   -2.5980    1.5000    0.0000 C   0  0  0  0  0  0  0  0  0  0  0  0
   -2.5980    0.0000    0.0000 C   0  0  0  0  0  0  0  0  0  0  0  0
   -1.2990   -0.7500    0.0000 C   0  0  0  0  0  0  0  0  0  0  0  0
   -1.2990   -2.2500    0.0000 N   0  3  0  0  0  0  0  0  0  0  0  0
   -2.5980   -3.0000    0.0000 O   0  5  0  0  0  0  0  0  0  0  0  0
    2.5980    0.0000    0.0000 O   0  5  0  0  0  0  0  0  0  0  0  0
  1  2  1  0  0  0  0
  2  3  1  0  0  0  0
  3  4  2  0  0  0  0
  3  5  1  0  0  0  0
  5  6  1  0  0  0  0
  6  7  2  0  0  0  0
  7  8  1  0  0  0  0
  8  9  1  0  0  0  0
  8 17  2  0  0  0  0
  9 10  2  0  0  0  0
 10 11  1  0  0  0  0
 10 19  1  0  0  0  0
 11 12  1  0  0  0  0
 11 16  2  0  0  0  0
 12 13  2  0  0  0  0
 13 14  1  0  0  0  0
 14 15  2  0  0  0  0
 15 16  1  0  0  0  0
 16 17  1  0  0  0  0
 17 18  1  0  0  0  0
M  CHG  1  10   1
M  CHG  1  17   1
M  CHG  1  18  -1
M  CHG  1  19  -1
M  END
>  <n>
57

>  <SMILES>
O(C(=O)NN=Cc1[n+]([O-])c2c([n+]([O-])c1)cccc2)C

>  <IC50>
>939.8

>  <Class>
0

>  <NAME>
AZ115

>  <INCHI_KEY>
OVGGLBAWFMIPPY-UHFFFAOYSA-N

>  <Reference>
Mitigating the inhibition of human Bile Salt Export Pump by drugs_ opportunities provided by physicochemical property modulation,  in-silico modeling and structural modification_SI

$$$$
AZ118
  MOE2013           2D

 27 30  0  0  1  0  0  0  0  0999 V2000
   -7.6500   10.1630    0.0000 C   0  0  0  0  0  0  0  0  0  0  0  0
   -8.0380    8.7140    0.0000 N   0  0  0  0  0  0  0  0  0  0  0  0
   -6.9780    7.6530    0.0000 C   0  0  0  0  0  0  0  0  0  0  0  0
   -7.3660    6.2040    0.0000 C   0  0  3  0  0  0  0  0  0  0  0  0
   -6.3050    5.1440    0.0000 C   0  0  0  0  0  0  0  0  0  0  0  0
   -6.6930    3.6950    0.0000 C   0  0  0  0  0  0  0  0  0  0  0  0
   -8.1420    3.3060    0.0000 C   0  0  0  0  0  0  0  0  0  0  0  0
   -8.5300    1.8580    0.0000 C   0  0  0  0  0  0  0  0  0  0  0  0
   -7.4700    0.7970    0.0000 C   0  0  0  0  0  0  0  0  0  0  0  0
   -6.0210    1.1850    0.0000 C   0  0  0  0  0  0  0  0  0  0  0  0
   -5.6330    2.6340    0.0000 C   0  0  0  0  0  0  0  0  0  0  0  0
   -4.9600    0.1240    0.0000 C   0  0  0  0  0  0  0  0  0  0  0  0
   -5.3490   -1.3240    0.0000 O   0  0  0  0  0  0  0  0  0  0  0  0
   -3.5110    0.5130    0.0000 N   0  0  0  0  0  0  0  0  0  0  0  0
   -2.4510   -0.5480    0.0000 C   0  0  0  0  0  0  0  0  0  0  0  0
   -1.0020   -0.1600    0.0000 C   0  0  0  0  0  0  0  0  0  0  0  0
   -0.5890   -0.8740    0.0000 C   0  0  0  0  0  0  0  0  0  0  0  0
    0.2090   -0.6650    0.0000 C   0  0  0  0  0  0  0  0  0  0  0  0
    1.0020   -0.8740    0.0000 C   0  0  0  0  0  0  0  0  0  0  0  0
    0.5900   -0.1600    0.0000 C   0  0  0  0  0  0  0  0  0  0  0  0
   -0.2090   -0.3690    0.0000 C   0  0  0  0  0  0  0  0  0  0  0  0
    0.5900    0.6650    0.0000 C   0  0  0  0  0  0  0  0  0  0  0  0
   -0.2040    0.8740    0.0000 C   0  0  0  0  0  0  0  0  0  0  0  0
    0.2090    0.1600    0.0000 C   0  0  0  0  0  0  0  0  0  0  0  0
   -1.0020    0.6650    0.0000 C   0  0  0  0  0  0  0  0  0  0  0  0
   -7.8580   -0.6520    0.0000 Cl  0  0  0  0  0  0  0  0  0  0  0  0
   -8.8150    5.8160    0.0000 O   0  0  0  0  0  0  0  0  0  0  0  0
  1  2  1  0  0  0  0
  2  3  1  0  0  0  0
  3  4  1  0  0  0  0
  4  5  1  0  0  0  0
  4 27  1  0  0  0  0
  5  6  1  0  0  0  0
  6  7  1  0  0  0  0
  6 11  2  0  0  0  0
  7  8  2  0  0  0  0
  8  9  1  0  0  0  0
  9 10  2  0  0  0  0
  9 26  1  0  0  0  0
 10 11  1  0  0  0  0
 10 12  1  0  0  0  0
 12 13  2  0  0  0  0
 12 14  1  0  0  0  0
 14 15  1  0  0  0  0
 15 16  1  0  0  0  0
 16 17  1  0  0  0  0
 16 21  1  0  0  0  0
 16 25  1  0  0  0  0
 17 18  1  0  0  0  0
 18 19  1  0  0  0  0
 18 24  1  0  0  0  0
 19 20  1  0  0  0  0
 20 21  1  0  0  0  0
 20 22  1  0  0  0  0
 22 23  1  0  0  0  0
 23 24  1  0  0  0  0
 23 25  1  0  0  0  0
M  END
>  <n>
60

>  <SMILES>
Clc1ccc(cc1C(=O)NCC12CC3CC(C1)CC(C2)C3)C[C@@H](O)CNC

>  <IC50>
133.2

>  <Class>
0

>  <NAME>
AZ118

>  <INCHI_KEY>
OBYIXHCAYXUAKA-DQYWGJDHSA-N

>  <Reference>
Mitigating the inhibition of human Bile Salt Export Pump by drugs_ opportunities provided by physicochemical property modulation,  in-silico modeling and structural modification_SI

$$$$
AZ119
  MOE2013           2D

 27 29  0  0  1  0  0  0  0  0999 V2000
   12.9190   -1.3580    0.0000 C   0  0  0  0  0  0  0  0  0  0  0  0
   11.5490   -1.9680    0.0000 C   0  0  0  0  0  0  0  0  0  0  0  0
   11.3920   -3.4600    0.0000 C   0  0  0  0  0  0  0  0  0  0  0  0
   12.6060   -4.3410    0.0000 C   0  0  0  0  0  0  0  0  0  0  0  0
   13.9760   -3.7310    0.0000 N   0  0  0  0  0  0  0  0  0  0  0  0
   14.1330   -2.2400    0.0000 C   0  0  0  0  0  0  0  0  0  0  0  0
   10.0220   -4.0700    0.0000 C   0  0  0  0  0  0  0  0  0  0  0  0
    8.8080   -3.1880    0.0000 C   0  0  0  0  0  0  0  0  0  0  0  0
    7.4380   -3.7980    0.0000 C   0  0  3  0  0  0  0  0  0  0  0  0
    6.2240   -2.9170    0.0000 C   0  0  0  0  0  0  0  0  0  0  0  0
    4.8540   -3.5270    0.0000 O   0  0  0  0  0  0  0  0  0  0  0  0
    3.6410   -2.6450    0.0000 C   0  0  0  0  0  0  0  0  0  0  0  0
    3.7970   -1.1530    0.0000 C   0  0  0  0  0  0  0  0  0  0  0  0
    2.5840   -0.2720    0.0000 C   0  0  0  0  0  0  0  0  0  0  0  0
    1.2140   -0.8820    0.0000 C   0  0  0  0  0  0  0  0  0  0  0  0
    1.0570   -2.3740    0.0000 C   0  0  0  0  0  0  0  0  0  0  0  0
    2.2700   -3.2550    0.0000 C   0  0  0  0  0  0  0  0  0  0  0  0
    0.0000    0.0000    0.0000 C   0  0  0  0  0  0  0  0  0  0  0  0
    0.0000    1.5000    0.0000 C   0  0  0  0  0  0  0  0  0  0  0  0
   -1.4270    1.9640    0.0000 C   0  0  0  0  0  0  0  0  0  0  0  0
   -2.3080    0.7500    0.0000 C   0  0  0  0  0  0  0  0  0  0  0  0
   -1.4270   -0.4640    0.0000 S   0  0  0  0  0  0  0  0  0  0  0  0
   -3.8080    0.7500    0.0000 S   0  0  0  0  0  0  0  0  0  0  0  0
   -4.5580    2.0490    0.0000 O   0  0  0  0  0  0  0  0  0  0  0  0
   -5.2180    0.2370    0.0000 O   0  0  0  0  0  0  0  0  0  0  0  0
   -3.5480   -0.7270    0.0000 N   0  0  0  0  0  0  0  0  0  0  0  0
    7.2810   -5.2900    0.0000 O   0  0  0  0  0  0  0  0  0  0  0  0
  1  2  1  0  0  0  0
  1  6  2  0  0  0  0
  2  3  2  0  0  0  0
  3  4  1  0  0  0  0
  3  7  1  0  0  0  0
  4  5  2  0  0  0  0
  5  6  1  0  0  0  0
  7  8  1  0  0  0  0
  8  9  1  0  0  0  0
  9 10  1  0  0  0  0
  9 27  1  0  0  0  0
 10 11  1  0  0  0  0
 11 12  1  0  0  0  0
 12 13  1  0  0  0  0
 12 17  2  0  0  0  0
 13 14  2  0  0  0  0
 14 15  1  0  0  0  0
 15 16  2  0  0  0  0
 15 18  1  0  0  0  0
 16 17  1  0  0  0  0
 18 19  2  0  0  0  0
 18 22  1  0  0  0  0
 19 20  1  0  0  0  0
 20 21  2  0  0  0  0
 21 22  1  0  0  0  0
 21 23  1  0  0  0  0
 23 24  2  0  0  0  0
 23 25  2  0  0  0  0
 23 26  1  0  0  0  0
M  END
>  <n>
61

>  <SMILES>
s1c(ccc1S(=O)(=O)N)-c1ccc(OC[C@H](O)CCc2cccnc2)cc1

>  <IC50>
>1000

>  <Class>
0

>  <NAME>
AZ119

>  <INCHI_KEY>
AGMQZFZTECJDGQ-MRXNPFEDSA-N

>  <Reference>
Mitigating the inhibition of human Bile Salt Export Pump by drugs_ opportunities provided by physicochemical property modulation,  in-silico modeling and structural modification_SI

$$$$
AZ12
  MOE2013           2D

 40 45  0  0  0  0  0  0  0  0999 V2000
    2.5980   10.5000    0.0000 C   0  0  0  0  0  0  0  0  0  0  0  0
    2.5980    9.0000    0.0000 C   0  0  0  0  0  0  0  0  0  0  0  0
    1.2990    8.2500    0.0000 C   0  0  0  0  0  0  0  0  0  0  0  0
    1.2990    6.7500    0.0000 C   0  0  0  0  0  0  0  0  0  0  0  0
    2.5980    6.0000    0.0000 C   0  0  0  0  0  0  0  0  0  0  0  0
    3.8970    6.7500    0.0000 C   0  0  0  0  0  0  0  0  0  0  0  0
    3.8970    8.2500    0.0000 C   0  0  0  0  0  0  0  0  0  0  0  0
    5.1960    9.0000    0.0000 N   0  0  0  0  0  0  0  0  0  0  0  0
    5.1960   10.5000    0.0000 C   0  0  0  0  0  0  0  0  0  0  0  0
    3.8970   11.2500    0.0000 O   0  0  0  0  0  0  0  0  0  0  0  0
    6.4950   11.2500    0.0000 C   0  0  0  0  0  0  0  0  0  0  0  0
    7.7940   10.5000    0.0000 C   0  0  0  0  0  0  0  0  0  0  0  0
    9.0930   11.2500    0.0000 C   0  0  0  0  0  0  0  0  0  0  0  0
    9.0930   12.7500    0.0000 C   0  0  0  0  0  0  0  0  0  0  0  0
    7.7940   13.5000    0.0000 C   0  0  0  0  0  0  0  0  0  0  0  0
    6.4950   12.7500    0.0000 C   0  0  0  0  0  0  0  0  0  0  0  0
    7.7940   15.0000    0.0000 C   0  0  0  0  0  0  0  0  0  0  0  0
    9.0930   15.7500    0.0000 N   0  0  0  0  0  0  0  0  0  0  0  0
   10.3920   15.0000    0.0000 C   0  0  0  0  0  0  0  0  0  0  0  0
   11.6910   15.7500    0.0000 C   0  0  0  0  0  0  0  0  0  0  0  0
   11.6910   17.2500    0.0000 N   0  0  0  0  0  0  0  0  0  0  0  0
   10.3920   18.0000    0.0000 C   0  0  0  0  0  0  0  0  0  0  0  0
    9.0930   17.2500    0.0000 C   0  0  0  0  0  0  0  0  0  0  0  0
   12.9900   18.0000    0.0000 C   0  0  0  0  0  0  0  0  0  0  0  0
    2.5980    4.5000    0.0000 N   0  0  0  0  0  0  0  0  0  0  0  0
    1.2990    3.7500    0.0000 C   0  0  0  0  0  0  0  0  0  0  0  0
    0.0000    4.5000    0.0000 O   0  0  0  0  0  0  0  0  0  0  0  0
    1.2990    2.2500    0.0000 C   0  0  0  0  0  0  0  0  0  0  0  0
    2.5980    1.5000    0.0000 C   0  0  0  0  0  0  0  0  0  0  0  0
    2.5980    0.0000    0.0000 C   0  0  0  0  0  0  0  0  0  0  0  0
    1.2990   -0.7500    0.0000 C   0  0  0  0  0  0  0  0  0  0  0  0
    0.0000    0.0000    0.0000 C   0  0  0  0  0  0  0  0  0  0  0  0
    0.0000    1.5000    0.0000 C   0  0  0  0  0  0  0  0  0  0  0  0
   -1.4270    1.9640    0.0000 O   0  0  0  0  0  0  0  0  0  0  0  0
   -2.3080    0.7500    0.0000 C   0  0  0  0  0  0  0  0  0  0  0  0
   -1.4270   -0.4640    0.0000 C   0  0  0  0  0  0  0  0  0  0  0  0
   -2.0370   -1.8340    0.0000 C   0  0  0  0  0  0  0  0  0  0  0  0
   -3.5280   -1.9910    0.0000 C   0  0  0  0  0  0  0  0  0  0  0  0
   -4.4100   -0.7770    0.0000 C   0  0  0  0  0  0  0  0  0  0  0  0
   -3.8000    0.5930    0.0000 C   0  0  0  0  0  0  0  0  0  0  0  0
  1  2  1  0  0  0  0
  2  3  1  0  0  0  0
  2  7  2  0  0  0  0
  3  4  2  0  0  0  0
  4  5  1  0  0  0  0
  5  6  2  0  0  0  0
  5 25  1  0  0  0  0
  6  7  1  0  0  0  0
  7  8  1  0  0  0  0
  8  9  1  0  0  0  0
  9 10  2  0  0  0  0
  9 11  1  0  0  0  0
 11 12  1  0  0  0  0
 11 16  2  0  0  0  0
 12 13  2  0  0  0  0
 13 14  1  0  0  0  0
 14 15  2  0  0  0  0
 15 16  1  0  0  0  0
 15 17  1  0  0  0  0
 17 18  1  0  0  0  0
 18 19  1  0  0  0  0
 18 23  1  0  0  0  0
 19 20  1  0  0  0  0
 20 21  1  0  0  0  0
 21 22  1  0  0  0  0
 21 24  1  0  0  0  0
 22 23  1  0  0  0  0
 25 26  1  0  0  0  0
 26 27  2  0  0  0  0
 26 28  1  0  0  0  0
 28 29  1  0  0  0  0
 28 33  2  0  0  0  0
 29 30  2  0  0  0  0
 30 31  1  0  0  0  0
 31 32  2  0  0  0  0
 32 33  1  0  0  0  0
 32 36  1  0  0  0  0
 33 34  1  0  0  0  0
 34 35  1  0  0  0  0
 35 36  1  0  0  0  0
 35 40  2  0  0  0  0
 36 37  2  0  0  0  0
 37 38  1  0  0  0  0
 38 39  2  0  0  0  0
 39 40  1  0  0  0  0
M  END
>  <n>
62

>  <SMILES>
o1c2c(c3c1cccc3)cccc2C(=O)Nc1cc(NC(=O)c2cc(ccc2)CN2CCN(CC2)C)c(cc1)C

>  <IC50>
<10

>  <Class>
1

>  <NAME>
AZ12

>  <INCHI_KEY>
NZDTURVTBGFCJP-UHFFFAOYSA-N

>  <Reference>
Mitigating the inhibition of human Bile Salt Export Pump by drugs_ opportunities provided by physicochemical property modulation,  in-silico modeling and structural modification_SI

$$$$
AZ120
  MOE2013           2D

 32 37  0  0  1  0  0  0  0  0999 V2000
   -4.1840    3.0220    0.0000 C   0  0  0  0  0  0  0  0  0  0  0  0
   -5.6330    2.6340    0.0000 C   0  0  0  0  0  0  0  0  0  0  0  0
   -6.6930    3.6950    0.0000 C   0  0  0  0  0  0  0  0  0  0  0  0
   -8.1420    3.3060    0.0000 C   0  0  0  0  0  0  0  0  0  0  0  0
   -8.5300    1.8580    0.0000 C   0  0  0  0  0  0  0  0  0  0  0  0
   -7.4700    0.7970    0.0000 C   0  0  0  0  0  0  0  0  0  0  0  0
   -6.0210    1.1850    0.0000 C   0  0  0  0  0  0  0  0  0  0  0  0
   -4.9600    0.1240    0.0000 N   0  0  0  0  0  0  0  0  0  0  0  0
   -3.5110    0.5130    0.0000 C   0  0  0  0  0  0  0  0  0  0  0  0
   -3.1230    1.9620    0.0000 O   0  0  0  0  0  0  0  0  0  0  0  0
   -2.4510   -0.5480    0.0000 C   0  0  0  0  0  0  0  0  0  0  0  0
   -1.0020   -0.1600    0.0000 C   0  0  0  0  0  0  0  0  0  0  0  0
   -0.5890   -0.8740    0.0000 C   0  0  0  0  0  0  0  0  0  0  0  0
    0.2090   -0.6650    0.0000 C   0  0  0  0  0  0  0  0  0  0  0  0
    1.0020   -0.8740    0.0000 C   0  0  0  0  0  0  0  0  0  0  0  0
    0.5900   -0.1600    0.0000 C   0  0  0  0  0  0  0  0  0  0  0  0
   -0.2090   -0.3690    0.0000 C   0  0  0  0  0  0  0  0  0  0  0  0
    0.5900    0.6650    0.0000 C   0  0  0  0  0  0  0  0  0  0  0  0
   -0.2040    0.8740    0.0000 C   0  0  0  0  0  0  0  0  0  0  0  0
    0.2090    0.1600    0.0000 C   0  0  0  0  0  0  0  0  0  0  0  0
   -1.0020    0.6650    0.0000 C   0  0  0  0  0  0  0  0  0  0  0  0
   -9.9790    1.4690    0.0000 C   0  0  0  0  0  0  0  0  0  0  0  0
  -10.3680    0.0200    0.0000 O   0  0  0  0  0  0  0  0  0  0  0  0
  -11.0400    2.5300    0.0000 N   0  0  0  0  0  0  0  0  0  0  0  0
  -10.7610    4.2650    0.0000 C   0  0  0  0  0  0  0  0  0  0  0  0
  -12.4200    5.7470    0.0000 C   0  0  3  0  0  0  0  0  0  0  0  0
  -13.4800    6.8070    0.0000 C   0  0  0  0  0  0  0  0  0  0  0  0
  -14.9290    6.4190    0.0000 N   0  0  0  0  0  0  0  0  0  0  0  0
  -15.3170    4.9700    0.0000 C   0  0  0  0  0  0  0  0  0  0  0  0
  -14.2570    3.9100    0.0000 C   0  0  3  0  0  0  0  0  0  0  0  0
  -12.7750    2.2510    0.0000 C   0  0  0  0  0  0  0  0  0  0  0  0
  -12.8080    4.2980    0.0000 O   0  0  0  0  0  0  0  0  0  0  0  0
  1  2  1  0  0  0  0
  2  3  1  0  0  0  0
  2  7  2  0  0  0  0
  3  4  2  0  0  0  0
  4  5  1  0  0  0  0
  5  6  2  0  0  0  0
  5 22  1  0  0  0  0
  6  7  1  0  0  0  0
  7  8  1  0  0  0  0
  8  9  1  0  0  0  0
  9 10  2  0  0  0  0
  9 11  1  0  0  0  0
 11 12  1  0  0  0  0
 12 13  1  0  0  0  0
 12 17  1  0  0  0  0
 12 21  1  0  0  0  0
 13 14  1  0  0  0  0
 14 15  1  0  0  0  0
 14 20  1  0  0  0  0
 15 16  1  0  0  0  0
 16 17  1  0  0  0  0
 16 18  1  0  0  0  0
 18 19  1  0  0  0  0
 19 20  1  0  0  0  0
 19 21  1  0  0  0  0
 22 23  2  0  0  0  0
 22 24  1  0  0  0  0
 24 25  1  0  0  0  0
 24 31  1  0  0  0  0
 25 26  1  0  0  0  0
 26 27  1  0  0  0  0
 26 32  1  0  0  0  0
 27 28  1  0  0  0  0
 28 29  1  0  0  0  0
 29 30  1  0  0  0  0
 30 31  1  0  0  0  0
 30 32  1  0  0  0  0
M  END
>  <n>
63

>  <SMILES>
O1C2CN(CC1CNC2)C(=O)c1cc(NC(=O)CC23CC4CC(C2)CC(C3)C4)c(cc1)C

>  <IC50>
59.51

>  <Class>
0

>  <NAME>
AZ120

>  <INCHI_KEY>
XYNNEMHCLNODBL-UHFFFAOYSA-N

>  <Reference>
Mitigating the inhibition of human Bile Salt Export Pump by drugs_ opportunities provided by physicochemical property modulation,  in-silico modeling and structural modification_SI

$$$$
AZ121
  MOE2013           2D

 26 29  0  0  0  0  0  0  0  0999 V2000
    3.8970    2.2500    0.0000 C   0  0  0  0  0  0  0  0  0  0  0  0
    2.5980    1.5000    0.0000 C   0  0  0  0  0  0  0  0  0  0  0  0
    2.5980    0.0000    0.0000 C   0  0  0  0  0  0  0  0  0  0  0  0
    1.2990   -0.7500    0.0000 C   0  0  0  0  0  0  0  0  0  0  0  0
    0.0000    0.0000    0.0000 C   0  0  0  0  0  0  0  0  0  0  0  0
    0.0000    1.5000    0.0000 C   0  0  0  0  0  0  0  0  0  0  0  0
    1.2990    2.2500    0.0000 C   0  0  0  0  0  0  0  0  0  0  0  0
   -1.4270    1.9640    0.0000 C   0  0  0  0  0  0  0  0  0  0  0  0
   -2.3080    0.7500    0.0000 C   0  0  0  0  0  0  0  0  0  0  0  0
   -1.4270   -0.4640    0.0000 N   0  0  0  0  0  0  0  0  0  0  0  0
   -1.8900   -1.8900    0.0000 C   0  0  0  0  0  0  0  0  0  0  0  0
   -3.3570   -2.2020    0.0000 C   0  0  0  0  0  0  0  0  0  0  0  0
   -3.8210   -3.6290    0.0000 O   0  0  0  0  0  0  0  0  0  0  0  0
   -4.3610   -1.0870    0.0000 O   0  0  0  0  0  0  0  0  0  0  0  0
   -3.8080    0.7500    0.0000 C   0  0  0  0  0  0  0  0  0  0  0  0
   -1.8900    3.3900    0.0000 C   0  0  0  0  0  0  0  0  0  0  0  0
   -3.3570    3.7020    0.0000 C   0  0  0  0  0  0  0  0  0  0  0  0
   -3.8210    5.1290    0.0000 C   0  0  0  0  0  0  0  0  0  0  0  0
   -2.8170    6.2430    0.0000 N   0  0  0  0  0  0  0  0  0  0  0  0
   -1.3500    5.9310    0.0000 C   0  0  0  0  0  0  0  0  0  0  0  0
   -0.8860    4.5050    0.0000 C   0  0  0  0  0  0  0  0  0  0  0  0
    0.5810    4.1930    0.0000 C   0  0  0  0  0  0  0  0  0  0  0  0
    1.5840    5.3080    0.0000 C   0  0  0  0  0  0  0  0  0  0  0  0
    1.1210    6.7340    0.0000 C   0  0  0  0  0  0  0  0  0  0  0  0
   -0.3460    7.0460    0.0000 C   0  0  0  0  0  0  0  0  0  0  0  0
   -0.8100    8.4730    0.0000 C   0  0  0  0  0  0  0  0  0  0  0  0
  1  2  1  0  0  0  0
  2  3  1  0  0  0  0
  2  7  2  0  0  0  0
  3  4  2  0  0  0  0
  4  5  1  0  0  0  0
  5  6  2  0  0  0  0
  5 10  1  0  0  0  0
  6  7  1  0  0  0  0
  6  8  1  0  0  0  0
  8  9  2  0  0  0  0
  8 16  1  0  0  0  0
  9 10  1  0  0  0  0
  9 15  1  0  0  0  0
 10 11  1  0  0  0  0
 11 12  1  0  0  0  0
 12 13  2  0  0  0  0
 12 14  1  0  0  0  0
 16 17  2  0  0  0  0
 16 21  1  0  0  0  0
 17 18  1  0  0  0  0
 18 19  2  0  0  0  0
 19 20  1  0  0  0  0
 20 21  1  0  0  0  0
 20 25  2  0  0  0  0
 21 22  2  0  0  0  0
 22 23  1  0  0  0  0
 23 24  2  0  0  0  0
 24 25  1  0  0  0  0
 25 26  1  0  0  0  0
M  END
>  <n>
64

>  <SMILES>
OC(=O)Cn1c2c(cc(cc2)C)c(-c2c3c(ncc2)c(ccc3)C)c1C

>  <IC50>
<10

>  <Class>
1

>  <NAME>
AZ121

>  <INCHI_KEY>
PYCNZTVHCBCNPY-UHFFFAOYSA-N

>  <Reference>
Mitigating the inhibition of human Bile Salt Export Pump by drugs_ opportunities provided by physicochemical property modulation,  in-silico modeling and structural modification_SI

$$$$
AZ123
  MOE2013           2D

 46 46  0  0  1  0  0  0  0  0999 V2000
    6.2710   -4.6280    0.0000 C   0  0  0  0  0  0  0  0  0  0  0  0
    5.6710   -3.2540    0.0000 C   0  0  0  0  0  0  0  0  0  0  0  0
    4.1810   -3.0860    0.0000 C   0  0  0  0  0  0  0  0  0  0  0  0
    3.5810   -1.7110    0.0000 C   0  0  0  0  0  0  0  0  0  0  0  0
    2.0900   -1.5430    0.0000 C   0  0  0  0  0  0  0  0  0  0  0  0
    1.4910   -0.1680    0.0000 C   0  0  3  0  0  0  0  0  0  0  0  0
    0.0000    0.0000    0.0000 C   0  0  3  0  0  0  0  0  0  0  0  0
    0.0000    1.5000    0.0000 C   0  0  3  0  0  0  0  0  0  0  0  0
   -0.3340    2.9620    0.0000 C   0  0  0  0  0  0  0  0  0  0  0  0
   -0.9850    4.3140    0.0000 C   0  0  3  0  0  0  0  0  0  0  0  0
   -1.9200    5.4870    0.0000 C   0  0  0  0  0  0  0  0  0  0  0  0
   -3.0930    6.4220    0.0000 C   0  0  3  0  0  0  0  0  0  0  0  0
   -4.4440    7.0730    0.0000 C   0  0  0  0  0  0  0  0  0  0  0  0
   -5.9060    7.4060    0.0000 C   0  0  3  0  0  0  0  0  0  0  0  0
   -7.4060    7.4060    0.0000 C   0  0  0  0  0  0  0  0  0  0  0  0
   -8.8690    7.0730    0.0000 C   0  0  3  0  0  0  0  0  0  0  0  0
  -10.2200    6.4220    0.0000 C   0  0  0  0  0  0  0  0  0  0  0  0
  -11.3930    5.4870    0.0000 C   0  0  3  0  0  0  0  0  0  0  0  0
  -12.3280    4.3140    0.0000 C   0  0  0  0  0  0  0  0  0  0  0  0
  -12.9790    2.9620    0.0000 C   0  0  3  0  0  0  0  0  0  0  0  0
  -13.3130    1.5000    0.0000 C   0  0  0  0  0  0  0  0  0  0  0  0
  -13.3130    0.0000    0.0000 C   0  0  0  0  0  0  0  0  0  0  0  0
  -12.9790   -1.4620    0.0000 C   0  0  0  0  0  0  0  0  0  0  0  0
  -12.3280   -2.8140    0.0000 C   0  0  0  0  0  0  0  0  0  0  0  0
  -11.3930   -3.9870    0.0000 C   0  0  0  0  0  0  0  0  0  0  0  0
  -10.2200   -4.9220    0.0000 C   0  0  0  0  0  0  0  0  0  0  0  0
   -8.8690   -5.5730    0.0000 C   0  0  0  0  0  0  0  0  0  0  0  0
   -7.4060   -5.9060    0.0000 C   0  0  0  0  0  0  0  0  0  0  0  0
   -5.9060   -5.9060    0.0000 C   0  0  0  0  0  0  0  0  0  0  0  0
   -4.4440   -5.5730    0.0000 C   0  0  0  0  0  0  0  0  0  0  0  0
   -3.0930   -4.9220    0.0000 C   0  0  3  0  0  0  0  0  0  0  0  0
   -1.9200   -3.9870    0.0000 C   0  0  3  0  0  0  0  0  0  0  0  0
   -0.9850   -2.8140    0.0000 O   0  0  0  0  0  0  0  0  0  0  0  0
   -0.3340   -1.4620    0.0000 C   0  0  0  0  0  0  0  0  0  0  0  0
    1.0820   -1.9580    0.0000 O   0  0  0  0  0  0  0  0  0  0  0  0
   -0.8590   -5.0470    0.0000 C   0  0  0  0  0  0  0  0  0  0  0  0
   -2.2940   -6.1920    0.0000 O   0  0  0  0  0  0  0  0  0  0  0  0
  -14.8030    1.6680    0.0000 C   0  0  0  0  0  0  0  0  0  0  0  0
  -14.3950    3.4580    0.0000 O   0  0  0  0  0  0  0  0  0  0  0  0
  -12.4540    6.5470    0.0000 O   0  0  0  0  0  0  0  0  0  0  0  0
   -9.3640    8.4880    0.0000 O   0  0  0  0  0  0  0  0  0  0  0  0
   -5.7380    8.8970    0.0000 O   0  0  0  0  0  0  0  0  0  0  0  0
   -2.2940    7.6920    0.0000 O   0  0  0  0  0  0  0  0  0  0  0  0
    0.2860    5.1120    0.0000 O   0  0  0  0  0  0  0  0  0  0  0  0
    1.4910    1.6680    0.0000 O   0  0  0  0  0  0  0  0  0  0  0  0
    2.3810    1.0390    0.0000 O   0  0  0  0  0  0  0  0  0  0  0  0
  1  2  1  0  0  0  0
  2  3  1  0  0  0  0
  3  4  1  0  0  0  0
  4  5  1  0  0  0  0
  5  6  1  0  0  0  0
  6  7  1  0  0  0  0
  6 46  1  0  0  0  0
  7  8  1  0  0  0  0
  7 34  1  0  0  0  0
  8  9  1  0  0  0  0
  8 45  1  0  0  0  0
  9 10  1  0  0  0  0
 10 11  1  0  0  0  0
 10 44  1  0  0  0  0
 11 12  1  0  0  0  0
 12 13  1  0  0  0  0
 12 43  1  0  0  0  0
 13 14  1  0  0  0  0
 14 15  1  0  0  0  0
 14 42  1  0  0  0  0
 15 16  1  0  0  0  0
 16 17  1  0  0  0  0
 16 41  1  0  0  0  0
 17 18  1  0  0  0  0
 18 19  1  0  0  0  0
 18 40  1  0  0  0  0
 19 20  1  0  0  0  0
 20 21  1  0  0  0  0
 20 39  1  0  0  0  0
 21 22  2  0  0  0  0
 21 38  1  0  0  0  0
 22 23  1  0  0  0  0
 23 24  2  0  0  0  0
 24 25  1  0  0  0  0
 25 26  2  0  0  0  0
 26 27  1  0  0  0  0
 27 28  2  0  0  0  0
 28 29  1  0  0  0  0
 29 30  2  0  0  0  0
 30 31  1  0  0  0  0
 31 32  1  0  0  0  0
 31 37  1  0  0  0  0
 32 33  1  0  0  0  0
 32 36  1  0  0  0  0
 33 34  1  0  0  0  0
 34 35  2  0  0  0  0
M  END
>  <n>
66

>  <SMILES>
O1C(C)C(O)\C=C\C=C\C=C\C=C\C=C(/C)\C(O)CC(O)CC(O)CC(O)CC(O)CC(O)CC(O)C(C(O)CCCCC)C1=O

>  <IC50>
164

>  <Class>
0

>  <NAME>
AZ123

>  <INCHI_KEY>
IMQSIXYSKPIGPD-ZPXVTHDFSA-N

>  <Reference>
Mitigating the inhibition of human Bile Salt Export Pump by drugs_ opportunities provided by physicochemical property modulation,  in-silico modeling and structural modification_SI

$$$$
AZ124
  MOE2013           2D

 31 33  0  0  0  0  0  0  0  0999 V2000
    3.7970   -1.1530    0.0000 C   0  0  0  0  0  0  0  0  0  0  0  0
    2.5840   -0.2720    0.0000 C   0  0  0  0  0  0  0  0  0  0  0  0
    1.2140   -0.8820    0.0000 C   0  0  0  0  0  0  0  0  0  0  0  0
    0.0000    0.0000    0.0000 C   0  0  0  0  0  0  0  0  0  0  0  0
    0.0000    1.5000    0.0000 N   0  0  0  0  0  0  0  0  0  0  0  0
   -1.4270    1.9640    0.0000 C   0  0  0  0  0  0  0  0  0  0  0  0
   -2.3080    0.7500    0.0000 C   0  0  0  0  0  0  0  0  0  0  0  0
   -1.4270   -0.4640    0.0000 N   0  0  0  0  0  0  0  0  0  0  0  0
   -1.8900   -1.8900    0.0000 C   0  0  0  0  0  0  0  0  0  0  0  0
   -3.3570   -2.2020    0.0000 C   0  0  0  0  0  0  0  0  0  0  0  0
   -3.8080    0.7500    0.0000 C   0  0  0  0  0  0  0  0  0  0  0  0
   -4.5580    2.0490    0.0000 C   0  0  0  0  0  0  0  0  0  0  0  0
   -6.0580    2.0490    0.0000 C   0  0  0  0  0  0  0  0  0  0  0  0
   -6.8080    0.7500    0.0000 N   0  0  0  0  0  0  0  0  0  0  0  0
   -6.0580   -0.5490    0.0000 C   0  0  0  0  0  0  0  0  0  0  0  0
   -4.5580   -0.5490    0.0000 N   0  0  0  0  0  0  0  0  0  0  0  0
   -6.8080   -1.8480    0.0000 N   0  0  0  0  0  0  0  0  0  0  0  0
   -8.3080   -1.8480    0.0000 C   0  0  0  0  0  0  0  0  0  0  0  0
   -9.0580   -0.5490    0.0000 C   0  0  0  0  0  0  0  0  0  0  0  0
  -10.5580   -0.5490    0.0000 C   0  0  0  0  0  0  0  0  0  0  0  0
  -11.3080   -1.8480    0.0000 C   0  0  0  0  0  0  0  0  0  0  0  0
  -10.5580   -3.1470    0.0000 C   0  0  0  0  0  0  0  0  0  0  0  0
   -9.0580   -3.1470    0.0000 C   0  0  0  0  0  0  0  0  0  0  0  0
  -12.8080   -1.8480    0.0000 S   0  0  0  0  0  0  0  0  0  0  0  0
  -12.5480   -0.3710    0.0000 O   0  0  0  0  0  0  0  0  0  0  0  0
  -14.2180   -1.3350    0.0000 O   0  0  0  0  0  0  0  0  0  0  0  0
  -13.5580   -3.1470    0.0000 N   0  0  0  0  0  0  0  0  0  0  0  0
  -15.0580   -3.1470    0.0000 C   0  0  0  0  0  0  0  0  0  0  0  0
  -15.8080   -4.4460    0.0000 C   0  0  0  0  0  0  0  0  0  0  0  0
  -17.3080   -4.4460    0.0000 O   0  0  0  0  0  0  0  0  0  0  0  0
  -18.0580   -5.7450    0.0000 C   0  0  0  0  0  0  0  0  0  0  0  0
  1  2  1  0  0  0  0
  2  3  1  0  0  0  0
  3  4  1  0  0  0  0
  4  5  2  0  0  0  0
  4  8  1  0  0  0  0
  5  6  1  0  0  0  0
  6  7  2  0  0  0  0
  7  8  1  0  0  0  0
  7 11  1  0  0  0  0
  8  9  1  0  0  0  0
  9 10  1  0  0  0  0
 11 12  1  0  0  0  0
 11 16  2  0  0  0  0
 12 13  2  0  0  0  0
 13 14  1  0  0  0  0
 14 15  2  0  0  0  0
 15 16  1  0  0  0  0
 15 17  1  0  0  0  0
 17 18  1  0  0  0  0
 18 19  1  0  0  0  0
 18 23  2  0  0  0  0
 19 20  2  0  0  0  0
 20 21  1  0  0  0  0
 21 22  2  0  0  0  0
 21 24  1  0  0  0  0
 22 23  1  0  0  0  0
 24 25  2  0  0  0  0
 24 26  2  0  0  0  0
 24 27  1  0  0  0  0
 27 28  1  0  0  0  0
 28 29  1  0  0  0  0
 29 30  1  0  0  0  0
 30 31  1  0  0  0  0
M  END
>  <n>
67

>  <SMILES>
S(=O)(=O)(NCCOC)c1ccc(Nc2nc(ccn2)-c2n(CC)c(nc2)CCC)cc1

>  <IC50>
<10

>  <Class>
1

>  <NAME>
AZ124

>  <INCHI_KEY>
WFEFIZVUPISKQK-UHFFFAOYSA-N

>  <Reference>
Mitigating the inhibition of human Bile Salt Export Pump by drugs_ opportunities provided by physicochemical property modulation,  in-silico modeling and structural modification_SI

$$$$
AZ125
  MOE2013           2D

 31 33  0  0  0  0  0  0  0  0999 V2000
    2.5840   -0.2720    0.0000 C   0  0  0  0  0  0  0  0  0  0  0  0
    1.2140   -0.8820    0.0000 C   0  0  0  0  0  0  0  0  0  0  0  0
    0.0000    0.0000    0.0000 C   0  0  0  0  0  0  0  0  0  0  0  0
    0.0000    1.5000    0.0000 N   0  0  0  0  0  0  0  0  0  0  0  0
   -1.4270    1.9640    0.0000 C   0  0  0  0  0  0  0  0  0  0  0  0
   -2.3080    0.7500    0.0000 C   0  0  0  0  0  0  0  0  0  0  0  0
   -1.4270   -0.4640    0.0000 N   0  0  0  0  0  0  0  0  0  0  0  0
   -1.8900   -1.8900    0.0000 C   0  0  0  0  0  0  0  0  0  0  0  0
   -3.3570   -2.2020    0.0000 C   0  0  0  0  0  0  0  0  0  0  0  0
   -0.8860   -3.0050    0.0000 C   0  0  0  0  0  0  0  0  0  0  0  0
   -3.8080    0.7500    0.0000 C   0  0  0  0  0  0  0  0  0  0  0  0
   -4.5580    2.0490    0.0000 C   0  0  0  0  0  0  0  0  0  0  0  0
   -6.0580    2.0490    0.0000 C   0  0  0  0  0  0  0  0  0  0  0  0
   -6.8080    0.7500    0.0000 N   0  0  0  0  0  0  0  0  0  0  0  0
   -6.0580   -0.5490    0.0000 C   0  0  0  0  0  0  0  0  0  0  0  0
   -4.5580   -0.5490    0.0000 N   0  0  0  0  0  0  0  0  0  0  0  0
   -6.8080   -1.8480    0.0000 N   0  0  0  0  0  0  0  0  0  0  0  0
   -8.3080   -1.8480    0.0000 C   0  0  0  0  0  0  0  0  0  0  0  0
   -9.0580   -0.5490    0.0000 C   0  0  0  0  0  0  0  0  0  0  0  0
  -10.5580   -0.5490    0.0000 C   0  0  0  0  0  0  0  0  0  0  0  0
  -11.3080   -1.8480    0.0000 C   0  0  0  0  0  0  0  0  0  0  0  0
  -10.5580   -3.1470    0.0000 C   0  0  0  0  0  0  0  0  0  0  0  0
   -9.0580   -3.1470    0.0000 C   0  0  0  0  0  0  0  0  0  0  0  0
  -12.8080   -1.8480    0.0000 S   0  0  0  0  0  0  0  0  0  0  0  0
  -12.5480   -0.3710    0.0000 O   0  0  0  0  0  0  0  0  0  0  0  0
  -14.2180   -1.3350    0.0000 O   0  0  0  0  0  0  0  0  0  0  0  0
  -13.5580   -3.1470    0.0000 N   0  0  0  0  0  0  0  0  0  0  0  0
  -15.0580   -3.1470    0.0000 C   0  0  0  0  0  0  0  0  0  0  0  0
  -15.8080   -4.4460    0.0000 C   0  0  0  0  0  0  0  0  0  0  0  0
  -17.3080   -4.4460    0.0000 O   0  0  0  0  0  0  0  0  0  0  0  0
  -18.0580   -5.7450    0.0000 C   0  0  0  0  0  0  0  0  0  0  0  0
  1  2  1  0  0  0  0
  2  3  1  0  0  0  0
  3  4  2  0  0  0  0
  3  7  1  0  0  0  0
  4  5  1  0  0  0  0
  5  6  2  0  0  0  0
  6  7  1  0  0  0  0
  6 11  1  0  0  0  0
  7  8  1  0  0  0  0
  8  9  1  0  0  0  0
  8 10  1  0  0  0  0
 11 12  1  0  0  0  0
 11 16  2  0  0  0  0
 12 13  2  0  0  0  0
 13 14  1  0  0  0  0
 14 15  2  0  0  0  0
 15 16  1  0  0  0  0
 15 17  1  0  0  0  0
 17 18  1  0  0  0  0
 18 19  1  0  0  0  0
 18 23  2  0  0  0  0
 19 20  2  0  0  0  0
 20 21  1  0  0  0  0
 21 22  2  0  0  0  0
 21 24  1  0  0  0  0
 22 23  1  0  0  0  0
 24 25  2  0  0  0  0
 24 26  2  0  0  0  0
 24 27  1  0  0  0  0
 27 28  1  0  0  0  0
 28 29  1  0  0  0  0
 29 30  1  0  0  0  0
 30 31  1  0  0  0  0
M  END
>  <n>
68

>  <SMILES>
S(=O)(=O)(NCCOC)c1ccc(Nc2nc(ccn2)-c2n(C(C)C)c(nc2)CC)cc1

>  <IC50>
<10

>  <Class>
1

>  <NAME>
AZ125

>  <INCHI_KEY>
IMJXMWLUTVMESQ-UHFFFAOYSA-N

>  <Reference>
Mitigating the inhibition of human Bile Salt Export Pump by drugs_ opportunities provided by physicochemical property modulation,  in-silico modeling and structural modification_SI

$$$$
AZ126
  MOE2013           2D

 29 32  0  0  0  0  0  0  0  0999 V2000
    3.8970    2.2500    0.0000 C   0  0  0  0  0  0  0  0  0  0  0  0
    2.5980    1.5000    0.0000 C   0  0  0  0  0  0  0  0  0  0  0  0
    2.5980    0.0000    0.0000 C   0  0  0  0  0  0  0  0  0  0  0  0
    1.2990   -0.7500    0.0000 C   0  0  0  0  0  0  0  0  0  0  0  0
    0.0000    0.0000    0.0000 C   0  0  0  0  0  0  0  0  0  0  0  0
    0.0000    1.5000    0.0000 C   0  0  0  0  0  0  0  0  0  0  0  0
    1.2990    2.2500    0.0000 C   0  0  0  0  0  0  0  0  0  0  0  0
   -1.4270    1.9640    0.0000 C   0  0  0  0  0  0  0  0  0  0  0  0
   -2.3080    0.7500    0.0000 C   0  0  0  0  0  0  0  0  0  0  0  0
   -1.4270   -0.4640    0.0000 N   0  0  0  0  0  0  0  0  0  0  0  0
   -1.8900   -1.8900    0.0000 C   0  0  0  0  0  0  0  0  0  0  0  0
   -3.3570   -2.2020    0.0000 C   0  0  0  0  0  0  0  0  0  0  0  0
   -3.8210   -3.6290    0.0000 O   0  0  0  0  0  0  0  0  0  0  0  0
   -4.3610   -1.0870    0.0000 O   0  0  0  0  0  0  0  0  0  0  0  0
   -3.8080    0.7500    0.0000 C   0  0  0  0  0  0  0  0  0  0  0  0
   -1.8900    3.3900    0.0000 C   0  0  0  0  0  0  0  0  0  0  0  0
   -3.3570    3.7020    0.0000 C   0  0  0  0  0  0  0  0  0  0  0  0
   -3.8210    5.1290    0.0000 C   0  0  0  0  0  0  0  0  0  0  0  0
   -2.8170    6.2430    0.0000 N   0  0  0  0  0  0  0  0  0  0  0  0
   -1.3500    5.9310    0.0000 C   0  0  0  0  0  0  0  0  0  0  0  0
   -0.8860    4.5050    0.0000 C   0  0  0  0  0  0  0  0  0  0  0  0
    0.5810    4.1930    0.0000 C   0  0  0  0  0  0  0  0  0  0  0  0
    1.5840    5.3080    0.0000 C   0  0  0  0  0  0  0  0  0  0  0  0
    1.1210    6.7340    0.0000 C   0  0  0  0  0  0  0  0  0  0  0  0
   -0.3460    7.0460    0.0000 C   0  0  0  0  0  0  0  0  0  0  0  0
   -0.8100    8.4730    0.0000 C   0  0  0  0  0  0  0  0  0  0  0  0
    0.1940    9.5870    0.0000 F   0  0  0  0  0  0  0  0  0  0  0  0
   -1.7330    9.6550    0.0000 F   0  0  0  0  0  0  0  0  0  0  0  0
   -2.1340    7.7680    0.0000 F   0  0  0  0  0  0  0  0  0  0  0  0
  1  2  1  0  0  0  0
  2  3  1  0  0  0  0
  2  7  2  0  0  0  0
  3  4  2  0  0  0  0
  4  5  1  0  0  0  0
  5  6  2  0  0  0  0
  5 10  1  0  0  0  0
  6  7  1  0  0  0  0
  6  8  1  0  0  0  0
  8  9  2  0  0  0  0
  8 16  1  0  0  0  0
  9 10  1  0  0  0  0
  9 15  1  0  0  0  0
 10 11  1  0  0  0  0
 11 12  1  0  0  0  0
 12 13  2  0  0  0  0
 12 14  1  0  0  0  0
 16 17  2  0  0  0  0
 16 21  1  0  0  0  0
 17 18  1  0  0  0  0
 18 19  2  0  0  0  0
 19 20  1  0  0  0  0
 20 21  1  0  0  0  0
 20 25  2  0  0  0  0
 21 22  2  0  0  0  0
 22 23  1  0  0  0  0
 23 24  2  0  0  0  0
 24 25  1  0  0  0  0
 25 26  1  0  0  0  0
 26 27  1  0  0  0  0
 26 28  1  0  0  0  0
 26 29  1  0  0  0  0
M  END
>  <n>
69

>  <SMILES>
FC(F)(F)c1c2nccc(c2ccc1)-c1c2cc(ccc2n(CC(O)=O)c1C)C

>  <IC50>
<10

>  <Class>
1

>  <NAME>
AZ126

>  <INCHI_KEY>
HYJFNTQMONCVNH-UHFFFAOYSA-N

>  <Reference>
Mitigating the inhibition of human Bile Salt Export Pump by drugs_ opportunities provided by physicochemical property modulation,  in-silico modeling and structural modification_SI

$$$$
AZ128
  MOE2013           2D

 26 29  0  0  0  0  0  0  0  0999 V2000
    3.8970    2.2500    0.0000 C   0  0  0  0  0  0  0  0  0  0  0  0
    2.5980    1.5000    0.0000 C   0  0  0  0  0  0  0  0  0  0  0  0
    2.5980    0.0000    0.0000 C   0  0  0  0  0  0  0  0  0  0  0  0
    1.2990   -0.7500    0.0000 C   0  0  0  0  0  0  0  0  0  0  0  0
    0.0000    0.0000    0.0000 C   0  0  0  0  0  0  0  0  0  0  0  0
    0.0000    1.5000    0.0000 C   0  0  0  0  0  0  0  0  0  0  0  0
    1.2990    2.2500    0.0000 C   0  0  0  0  0  0  0  0  0  0  0  0
   -1.4270    1.9640    0.0000 C   0  0  0  0  0  0  0  0  0  0  0  0
   -2.3080    0.7500    0.0000 C   0  0  0  0  0  0  0  0  0  0  0  0
   -1.4270   -0.4640    0.0000 N   0  0  0  0  0  0  0  0  0  0  0  0
   -1.8900   -1.8900    0.0000 C   0  0  0  0  0  0  0  0  0  0  0  0
   -3.3570   -2.2020    0.0000 C   0  0  0  0  0  0  0  0  0  0  0  0
   -3.8210   -3.6290    0.0000 O   0  0  0  0  0  0  0  0  0  0  0  0
   -4.3610   -1.0870    0.0000 O   0  0  0  0  0  0  0  0  0  0  0  0
   -3.8080    0.7500    0.0000 C   0  0  0  0  0  0  0  0  0  0  0  0
   -1.8900    3.3900    0.0000 C   0  0  0  0  0  0  0  0  0  0  0  0
   -3.3570    3.7020    0.0000 C   0  0  0  0  0  0  0  0  0  0  0  0
   -3.8210    5.1290    0.0000 C   0  0  0  0  0  0  0  0  0  0  0  0
   -2.8170    6.2430    0.0000 N   0  0  0  0  0  0  0  0  0  0  0  0
   -1.3500    5.9310    0.0000 C   0  0  0  0  0  0  0  0  0  0  0  0
   -0.8860    4.5050    0.0000 C   0  0  0  0  0  0  0  0  0  0  0  0
    0.5810    4.1930    0.0000 C   0  0  0  0  0  0  0  0  0  0  0  0
    1.5840    5.3080    0.0000 C   0  0  0  0  0  0  0  0  0  0  0  0
    1.1210    6.7340    0.0000 C   0  0  0  0  0  0  0  0  0  0  0  0
   -0.3460    7.0460    0.0000 C   0  0  0  0  0  0  0  0  0  0  0  0
   -0.8100    8.4730    0.0000 Cl  0  0  0  0  0  0  0  0  0  0  0  0
  1  2  1  0  0  0  0
  2  3  1  0  0  0  0
  2  7  2  0  0  0  0
  3  4  2  0  0  0  0
  4  5  1  0  0  0  0
  5  6  2  0  0  0  0
  5 10  1  0  0  0  0
  6  7  1  0  0  0  0
  6  8  1  0  0  0  0
  8  9  2  0  0  0  0
  8 16  1  0  0  0  0
  9 10  1  0  0  0  0
  9 15  1  0  0  0  0
 10 11  1  0  0  0  0
 11 12  1  0  0  0  0
 12 13  2  0  0  0  0
 12 14  1  0  0  0  0
 16 17  2  0  0  0  0
 16 21  1  0  0  0  0
 17 18  1  0  0  0  0
 18 19  2  0  0  0  0
 19 20  1  0  0  0  0
 20 21  1  0  0  0  0
 20 25  2  0  0  0  0
 21 22  2  0  0  0  0
 22 23  1  0  0  0  0
 23 24  2  0  0  0  0
 24 25  1  0  0  0  0
 25 26  1  0  0  0  0
M  END
>  <n>
71

>  <SMILES>
Clc1c2nccc(c2ccc1)-c1c2cc(ccc2n(CC(O)=O)c1C)C

>  <IC50>
<10

>  <Class>
1

>  <NAME>
AZ128

>  <INCHI_KEY>
IGAKOCYZIOYZOG-UHFFFAOYSA-N

>  <Reference>
Mitigating the inhibition of human Bile Salt Export Pump by drugs_ opportunities provided by physicochemical property modulation,  in-silico modeling and structural modification_SI

$$$$
AZ129
  MOE2013           2D

 23 26  0  0  1  0  0  0  0  0999 V2000
    1.2140   -0.8820    0.0000 C   0  0  0  0  0  0  0  0  0  0  0  0
    0.0000    0.0000    0.0000 N   0  0  0  0  0  0  0  0  0  0  0  0
    0.0000    1.5000    0.0000 C   0  0  3  0  0  0  0  0  0  0  0  0
   -1.4270    1.9640    0.0000 C   0  0  0  0  0  0  0  0  0  0  0  0
   -2.3080    0.7500    0.0000 C   0  0  0  0  0  0  0  0  0  0  0  0
   -1.4270   -0.4640    0.0000 C   0  0  3  0  0  0  0  0  0  0  0  0
    0.2510   -1.9550    0.0000 C   0  0  0  0  0  0  0  0  0  0  0  0
    1.9520   -1.4180    0.0000 C   0  0  0  0  0  0  0  0  0  0  0  0
    1.9370    0.3660    0.0000 C   0  0  0  0  0  0  0  0  0  0  0  0
    3.1650   -2.3000    0.0000 O   0  0  0  0  0  0  0  0  0  0  0  0
    4.5350   -1.6890    0.0000 C   0  0  0  0  0  0  0  0  0  0  0  0
    5.7490   -2.5710    0.0000 C   0  0  0  0  0  0  0  0  0  0  0  0
    5.5920   -4.0630    0.0000 C   0  0  0  0  0  0  0  0  0  0  0  0
    6.8060   -4.9450    0.0000 C   0  0  0  0  0  0  0  0  0  0  0  0
    8.1760   -4.3340    0.0000 C   0  0  0  0  0  0  0  0  0  0  0  0
    8.3330   -2.8430    0.0000 C   0  0  0  0  0  0  0  0  0  0  0  0
    7.1190   -1.9610    0.0000 C   0  0  0  0  0  0  0  0  0  0  0  0
    4.6920   -0.1980    0.0000 C   0  0  0  0  0  0  0  0  0  0  0  0
    6.0620    0.4120    0.0000 C   0  0  0  0  0  0  0  0  0  0  0  0
    6.2190    1.9040    0.0000 C   0  0  0  0  0  0  0  0  0  0  0  0
    5.0060    2.7860    0.0000 C   0  0  0  0  0  0  0  0  0  0  0  0
    3.6350    2.1760    0.0000 C   0  0  0  0  0  0  0  0  0  0  0  0
    3.4790    0.6840    0.0000 C   0  0  0  0  0  0  0  0  0  0  0  0
  1  2  1  0  0  0  0
  2  3  1  0  0  0  0
  2  6  1  0  0  0  0
  3  4  1  0  0  0  0
  3  9  1  0  0  0  0
  4  5  1  0  0  0  0
  5  6  1  0  0  0  0
  6  7  1  0  0  0  0
  7  8  1  0  0  0  0
  8  9  1  0  0  0  0
  8 10  1  0  0  0  0
 10 11  1  0  0  0  0
 11 12  1  0  0  0  0
 11 18  1  0  0  0  0
 12 13  1  0  0  0  0
 12 17  2  0  0  0  0
 13 14  2  0  0  0  0
 14 15  1  0  0  0  0
 15 16  2  0  0  0  0
 16 17  1  0  0  0  0
 18 19  1  0  0  0  0
 18 23  2  0  0  0  0
 19 20  2  0  0  0  0
 20 21  1  0  0  0  0
 21 22  2  0  0  0  0
 22 23  1  0  0  0  0
M  END
>  <n>
72

>  <SMILES>
O(C(c1ccccc1)c1ccccc1)C1C[C@@H]2N([C@H](C1)CC2)C

>  <IC50>
188.6

>  <Class>
0

>  <NAME>
AZ129

>  <INCHI_KEY>
GIJXKZJWITVLHI-PMOLBWCYSA-N

>  <Reference>
Mitigating the inhibition of human Bile Salt Export Pump by drugs_ opportunities provided by physicochemical property modulation,  in-silico modeling and structural modification_SI

$$$$
AZ130
  MOE2013           2D

 23 25  0  0  1  0  0  0  0  0999 V2000
    2.5980    1.5000    0.0000 C   0  0  0  0  0  0  0  0  0  0  0  0
    2.5980    0.0000    0.0000 C   0  0  3  0  0  0  0  0  0  0  0  0
    1.2990   -0.7500    0.0000 C   0  0  0  0  0  0  0  0  0  0  0  0
    0.0000    0.0000    0.0000 N   0  0  3  0  0  0  0  0  0  0  0  0
    0.0000    1.5000    0.0000 C   0  0  0  0  0  0  0  0  0  0  0  0
    1.2990    2.2500    0.0000 C   0  0  0  0  0  0  0  0  0  0  0  0
    1.2990    3.7500    0.0000 C   0  0  0  0  0  0  0  0  0  0  0  0
    0.0000    4.5000    0.0000 C   0  0  0  0  0  0  0  0  0  0  0  0
   -1.2990    3.7500    0.0000 C   0  0  0  0  0  0  0  0  0  0  0  0
   -1.2990    2.2500    0.0000 C   0  0  0  0  0  0  0  0  0  0  0  0
   -2.5980    1.5000    0.0000 S   0  0  0  0  0  0  0  0  0  0  0  0
   -2.5980    0.0000    0.0000 C   0  0  0  0  0  0  0  0  0  0  0  0
   -1.2990   -0.7500    0.0000 C   0  0  0  0  0  0  0  0  0  0  0  0
   -1.2990   -2.2500    0.0000 C   0  0  0  0  0  0  0  0  0  0  0  0
   -2.5980   -3.0000    0.0000 C   0  0  0  0  0  0  0  0  0  0  0  0
   -3.8970   -2.2500    0.0000 C   0  0  0  0  0  0  0  0  0  0  0  0
   -3.8970   -0.7500    0.0000 C   0  0  0  0  0  0  0  0  0  0  0  0
   -2.5980   -4.5000    0.0000 O   0  0  0  0  0  0  0  0  0  0  0  0
   -3.8970   -5.2500    0.0000 C   0  0  0  0  0  0  0  0  0  0  0  0
    3.8970   -0.7500    0.0000 C   0  0  0  0  0  0  0  0  0  0  0  0
    5.1960    0.0000    0.0000 N   0  0  0  0  0  0  0  0  0  0  0  0
    6.4950   -0.7500    0.0000 C   0  0  0  0  0  0  0  0  0  0  0  0
    5.1960    1.5000    0.0000 C   0  0  0  0  0  0  0  0  0  0  0  0
  1  2  1  0  0  0  0
  2  3  1  0  0  0  0
  2 20  1  0  0  0  0
  3  4  1  0  0  0  0
  4  5  1  0  0  0  0
  4 13  1  0  0  0  0
  5  6  1  0  0  0  0
  5 10  2  0  0  0  0
  6  7  2  0  0  0  0
  7  8  1  0  0  0  0
  8  9  2  0  0  0  0
  9 10  1  0  0  0  0
 10 11  1  0  0  0  0
 11 12  1  0  0  0  0
 12 13  1  0  0  0  0
 12 17  2  0  0  0  0
 13 14  2  0  0  0  0
 14 15  1  0  0  0  0
 15 16  2  0  0  0  0
 15 18  1  0  0  0  0
 16 17  1  0  0  0  0
 18 19  1  0  0  0  0
 20 21  1  0  0  0  0
 21 22  1  0  0  0  0
 21 23  1  0  0  0  0
M  END
>  <n>
74

>  <SMILES>
S1c2c(N(c3c1cccc3)C[C@@H](CN(C)C)C)cc(OC)cc2

>  <IC50>
127

>  <Class>
0

>  <NAME>
AZ130

>  <INCHI_KEY>
VRQVVMDWGGWHTJ-CQSZACIVSA-N

>  <Reference>
Mitigating the inhibition of human Bile Salt Export Pump by drugs_ opportunities provided by physicochemical property modulation,  in-silico modeling and structural modification_SI

$$$$
AZ131
  MOE2013           2D

 23 25  0  0  0  0  0  0  0  0999 V2000
    1.0570   -2.3740    0.0000 C   0  0  0  0  0  0  0  0  0  0  0  0
    2.2700   -3.2550    0.0000 C   0  0  0  0  0  0  0  0  0  0  0  0
    3.6410   -2.6450    0.0000 C   0  0  0  0  0  0  0  0  0  0  0  0
    3.7970   -1.1530    0.0000 C   0  0  0  0  0  0  0  0  0  0  0  0
    2.5840   -0.2720    0.0000 C   0  0  0  0  0  0  0  0  0  0  0  0
    1.2140   -0.8820    0.0000 C   0  0  0  0  0  0  0  0  0  0  0  0
    0.0000    0.0000    0.0000 C   0  0  0  0  0  0  0  0  0  0  0  0
    0.0000    1.5000    0.0000 C   0  0  0  0  0  0  0  0  0  0  0  0
   -1.4270    1.9640    0.0000 C   0  0  0  0  0  0  0  0  0  0  0  0
   -2.3080    0.7500    0.0000 C   0  0  0  0  0  0  0  0  0  0  0  0
   -1.4270   -0.4640    0.0000 O   0  0  0  0  0  0  0  0  0  0  0  0
   -3.8080    0.7500    0.0000 C   0  0  0  0  0  0  0  0  0  0  0  0
   -4.5580    2.0490    0.0000 N   0  0  0  0  0  0  0  0  0  0  0  0
   -6.0580    2.0490    0.0000 N   0  0  0  0  0  0  0  0  0  0  0  0
   -6.9400    3.2630    0.0000 C   0  0  0  0  0  0  0  0  0  0  0  0
   -8.3660    2.7990    0.0000 C   0  0  0  0  0  0  0  0  0  0  0  0
   -9.5800    3.6810    0.0000 O   0  0  0  0  0  0  0  0  0  0  0  0
   -8.3660    1.2990    0.0000 N   0  0  0  0  0  0  0  0  0  0  0  0
   -6.9400    0.8360    0.0000 C   0  0  0  0  0  0  0  0  0  0  0  0
   -6.4760   -0.5910    0.0000 O   0  0  0  0  0  0  0  0  0  0  0  0
    4.8540   -3.5270    0.0000 N   0  3  0  0  0  0  0  0  0  0  0  0
    6.2240   -2.9170    0.0000 O   0  0  0  0  0  0  0  0  0  0  0  0
    4.6970   -5.0180    0.0000 O   0  5  0  0  0  0  0  0  0  0  0  0
  1  2  1  0  0  0  0
  1  6  2  0  0  0  0
  2  3  2  0  0  0  0
  3  4  1  0  0  0  0
  3 21  1  0  0  0  0
  4  5  2  0  0  0  0
  5  6  1  0  0  0  0
  6  7  1  0  0  0  0
  7  8  2  0  0  0  0
  7 11  1  0  0  0  0
  8  9  1  0  0  0  0
  9 10  2  0  0  0  0
 10 11  1  0  0  0  0
 10 12  1  0  0  0  0
 12 13  2  0  0  0  0
 13 14  1  0  0  0  0
 14 15  1  0  0  0  0
 14 19  1  0  0  0  0
 15 16  1  0  0  0  0
 16 17  2  0  0  0  0
 16 18  1  0  0  0  0
 18 19  1  0  0  0  0
 19 20  2  0  0  0  0
 21 22  2  0  0  0  0
 21 23  1  0  0  0  0
M  CHG  1  21   1
M  CHG  1  23  -1
M  END
>  <n>
75

>  <SMILES>
o1c(ccc1\C=N\N1CC(=O)NC1=O)-c1ccc([N+](=O)[O-])cc1

>  <IC50>
145.5

>  <Class>
0

>  <NAME>
AZ131

>  <INCHI_KEY>
OZOMQRBLCMDCEG-VIZOYTHASA-N

>  <Reference>
Mitigating the inhibition of human Bile Salt Export Pump by drugs_ opportunities provided by physicochemical property modulation,  in-silico modeling and structural modification_SI

$$$$
AZ132
  MOE2013           2D

 20 21  0  0  1  0  0  0  0  0999 V2000
    0.6720   -2.5100    0.0000 C   0  0  0  0  0  0  0  0  0  0  0  0
    1.0610   -1.0610    0.0000 C   0  0  3  0  0  0  0  0  0  0  0  0
    0.0000    0.0000    0.0000 C   0  0  3  0  0  0  0  0  0  0  0  0
    0.0000    1.5000    0.0000 C   0  0  3  0  0  0  0  0  0  0  0  0
    0.4640    2.9270    0.0000 C   0  0  0  0  0  0  0  0  0  0  0  0
   -0.7500    3.8080    0.0000 C   0  0  0  0  0  0  0  0  0  0  0  0
   -1.9640    2.9270    0.0000 C   0  0  0  0  0  0  0  0  0  0  0  0
   -1.5000    1.5000    0.0000 N   0  0  0  0  0  0  0  0  0  0  0  0
   -1.5000    0.0000    0.0000 C   0  0  0  0  0  0  0  0  0  0  0  0
   -2.5610   -1.0610    0.0000 O   0  0  0  0  0  0  0  0  0  0  0  0
   -3.3900    3.3900    0.0000 C   0  0  0  0  0  0  0  0  0  0  0  0
   -3.7020    4.8570    0.0000 O   0  0  0  0  0  0  0  0  0  0  0  0
   -4.5050    2.3860    0.0000 O   0  0  0  0  0  0  0  0  0  0  0  0
   -0.7500    5.3080    0.0000 S   0  0  0  0  0  0  0  0  0  0  0  0
    0.5490    6.0580    0.0000 C   0  0  0  0  0  0  0  0  0  0  0  0
    0.5490    7.5580    0.0000 C   0  0  0  0  0  0  0  0  0  0  0  0
    1.8480    8.3080    0.0000 N   0  0  0  0  0  0  0  0  0  0  0  0
    1.8480    9.8080    0.0000 C   0  0  0  0  0  0  0  0  0  0  0  0
    3.1470   10.5580    0.0000 N   0  0  0  0  0  0  0  0  0  0  0  0
    2.5100   -0.6720    0.0000 O   0  0  0  0  0  0  0  0  0  0  0  0
  1  2  1  0  0  0  0
  2  3  1  0  0  0  0
  2 20  1  0  0  0  0
  3  4  1  0  0  0  0
  3  9  1  0  0  0  0
  4  5  1  0  0  0  0
  4  8  1  0  0  0  0
  5  6  1  0  0  0  0
  6  7  2  0  0  0  0
  6 14  1  0  0  0  0
  7  8  1  0  0  0  0
  7 11  1  0  0  0  0
  8  9  1  0  0  0  0
  9 10  2  0  0  0  0
 11 12  2  0  0  0  0
 11 13  1  0  0  0  0
 14 15  1  0  0  0  0
 15 16  1  0  0  0  0
 16 17  1  0  0  0  0
 17 18  1  0  0  0  0
 18 19  2  0  0  0  0
M  END
>  <n>
76

>  <SMILES>
S(CCNC=N)C=1C[C@H]2N(C=1C(O)=O)C(=O)[C@@H]2[C@H](O)C

>  <IC50>
>1000

>  <Class>
0

>  <NAME>
AZ132

>  <INCHI_KEY>
ZSKVGTPCRGIANV-ZXFLCMHBSA-N

>  <Reference>
Mitigating the inhibition of human Bile Salt Export Pump by drugs_ opportunities provided by physicochemical property modulation,  in-silico modeling and structural modification_SI

$$$$
AZ133
  MOE2013           2D

 12 13  0  0  1  0  0  0  0  0999 V2000
    1.2140   -0.8820    0.0000 C   0  0  0  0  0  0  0  0  0  0  0  0
    0.0000    0.0000    0.0000 N   0  0  3  0  0  0  0  0  0  0  0  0
    0.0000    1.5000    0.0000 C   0  0  0  0  0  0  0  0  0  0  0  0
   -1.4270    1.9640    0.0000 C   0  0  0  0  0  0  0  0  0  0  0  0
   -2.3080    0.7500    0.0000 C   0  0  0  0  0  0  0  0  0  0  0  0
   -1.4270   -0.4640    0.0000 C   0  0  3  0  0  0  0  0  0  0  0  0
   -1.8900   -1.8900    0.0000 C   0  0  0  0  0  0  0  0  0  0  0  0
   -3.3570   -2.2020    0.0000 C   0  0  0  0  0  0  0  0  0  0  0  0
   -3.8210   -3.6290    0.0000 C   0  0  0  0  0  0  0  0  0  0  0  0
   -2.8170   -4.7430    0.0000 C   0  0  0  0  0  0  0  0  0  0  0  0
   -1.3500   -4.4310    0.0000 N   0  0  0  0  0  0  0  0  0  0  0  0
   -0.8860   -3.0050    0.0000 C   0  0  0  0  0  0  0  0  0  0  0  0
  1  2  1  0  0  0  0
  2  3  1  0  0  0  0
  2  6  1  0  0  0  0
  3  4  1  0  0  0  0
  4  5  1  0  0  0  0
  5  6  1  0  0  0  0
  6  7  1  0  0  0  0
  7  8  1  0  0  0  0
  7 12  2  0  0  0  0
  8  9  2  0  0  0  0
  9 10  1  0  0  0  0
 10 11  2  0  0  0  0
 11 12  1  0  0  0  0
M  END
>  <n>
77

>  <SMILES>
n1cc(ccc1)[C@H]1N(CCC1)C

>  <IC50>
>1000

>  <Class>
0

>  <NAME>
AZ133

>  <INCHI_KEY>
SNICXCGAKADSCV-JTQLQIEISA-N

>  <Reference>
Mitigating the inhibition of human Bile Salt Export Pump by drugs_ opportunities provided by physicochemical property modulation,  in-silico modeling and structural modification_SI

$$$$
AZ134
  MOE2013           2D

 34 38  0  0  0  0  0  0  0  0999 V2000
    3.6410   -2.6450    0.0000 C   0  0  0  0  0  0  0  0  0  0  0  0
    3.7970   -1.1530    0.0000 C   0  0  0  0  0  0  0  0  0  0  0  0
    2.5840   -0.2720    0.0000 C   0  0  0  0  0  0  0  0  0  0  0  0
    1.2140   -0.8820    0.0000 C   0  0  0  0  0  0  0  0  0  0  0  0
    1.0570   -2.3740    0.0000 C   0  0  0  0  0  0  0  0  0  0  0  0
    2.2700   -3.2550    0.0000 C   0  0  0  0  0  0  0  0  0  0  0  0
    0.0000    0.0000    0.0000 C   0  0  0  0  0  0  0  0  0  0  0  0
    0.0000    1.5000    0.0000 C   0  0  0  0  0  0  0  0  0  0  0  0
   -1.4270    1.9640    0.0000 C   0  0  0  0  0  0  0  0  0  0  0  0
   -1.8900    3.3900    0.0000 O   0  0  0  0  0  0  0  0  0  0  0  0
   -2.3080    0.7500    0.0000 N   0  0  0  0  0  0  0  0  0  0  0  0
   -1.4270   -0.4640    0.0000 C   0  0  0  0  0  0  0  0  0  0  0  0
   -1.8900   -1.8900    0.0000 O   0  0  0  0  0  0  0  0  0  0  0  0
   -3.8080    0.7500    0.0000 C   0  0  0  0  0  0  0  0  0  0  0  0
   -4.5580    2.0490    0.0000 C   0  0  0  0  0  0  0  0  0  0  0  0
   -3.8080    3.3480    0.0000 C   0  0  0  0  0  0  0  0  0  0  0  0
   -4.5580    4.6470    0.0000 C   0  0  0  0  0  0  0  0  0  0  0  0
   -6.0580    4.6470    0.0000 C   0  0  0  0  0  0  0  0  0  0  0  0
   -6.8080    3.3480    0.0000 N   0  0  0  0  0  0  0  0  0  0  0  0
   -6.0580    2.0490    0.0000 C   0  0  0  0  0  0  0  0  0  0  0  0
   -6.8080    5.9460    0.0000 N   0  0  0  0  0  0  0  0  0  0  0  0
    1.2140    2.3820    0.0000 N   0  0  0  0  0  0  0  0  0  0  0  0
    2.5840    1.7720    0.0000 C   0  0  0  0  0  0  0  0  0  0  0  0
    2.7410    0.2800    0.0000 C   0  0  0  0  0  0  0  0  0  0  0  0
    4.1110   -0.3300    0.0000 C   0  0  0  0  0  0  0  0  0  0  0  0
    5.3240    0.5510    0.0000 C   0  0  0  0  0  0  0  0  0  0  0  0
    5.1680    2.0430    0.0000 C   0  0  0  0  0  0  0  0  0  0  0  0
    3.7970    2.6530    0.0000 C   0  0  0  0  0  0  0  0  0  0  0  0
    6.6950   -0.0590    0.0000 N   0  0  0  0  0  0  0  0  0  0  0  0
    6.8520   -1.5500    0.0000 C   0  0  0  0  0  0  0  0  0  0  0  0
    8.2220   -2.1610    0.0000 C   0  0  0  0  0  0  0  0  0  0  0  0
    9.4350   -1.2790    0.0000 O   0  0  0  0  0  0  0  0  0  0  0  0
    9.2790    0.2130    0.0000 C   0  0  0  0  0  0  0  0  0  0  0  0
    7.9080    0.8230    0.0000 C   0  0  0  0  0  0  0  0  0  0  0  0
  1  2  1  0  0  0  0
  1  6  2  0  0  0  0
  2  3  2  0  0  0  0
  3  4  1  0  0  0  0
  4  5  2  0  0  0  0
  4  7  1  0  0  0  0
  5  6  1  0  0  0  0
  7  8  2  0  0  0  0
  7 12  1  0  0  0  0
  8  9  1  0  0  0  0
  8 22  1  0  0  0  0
  9 10  2  0  0  0  0
  9 11  1  0  0  0  0
 11 12  1  0  0  0  0
 11 14  1  0  0  0  0
 12 13  2  0  0  0  0
 14 15  1  0  0  0  0
 15 16  1  0  0  0  0
 15 20  2  0  0  0  0
 16 17  2  0  0  0  0
 17 18  1  0  0  0  0
 18 19  2  0  0  0  0
 18 21  1  0  0  0  0
 19 20  1  0  0  0  0
 22 23  1  0  0  0  0
 23 24  1  0  0  0  0
 23 28  2  0  0  0  0
 24 25  2  0  0  0  0
 25 26  1  0  0  0  0
 26 27  2  0  0  0  0
 26 29  1  0  0  0  0
 27 28  1  0  0  0  0
 29 30  1  0  0  0  0
 29 34  1  0  0  0  0
 30 31  1  0  0  0  0
 31 32  1  0  0  0  0
 32 33  1  0  0  0  0
 33 34  1  0  0  0  0
M  END
>  <n>
78

>  <SMILES>
O1CCN(CC1)c1ccc(NC2=C(c3ccccc3)C(=O)N(Cc3ccc(nc3)N)C2=O)cc1

>  <IC50>
<10

>  <Class>
1

>  <NAME>
AZ134

>  <INCHI_KEY>
JDHWLVUZCIEPGC-UHFFFAOYSA-N

>  <Reference>
Mitigating the inhibition of human Bile Salt Export Pump by drugs_ opportunities provided by physicochemical property modulation,  in-silico modeling and structural modification_SI

$$$$
AZ135
  MOE2013           2D

 14 13  0  0  1  0  0  0  0  0999 V2000
   -2.7760    2.5100    0.0000 C   0  0  0  0  0  0  0  0  0  0  0  0
   -1.2990    2.2500    0.0000 C   0  0  0  0  0  0  0  0  0  0  0  0
   -1.8120    0.8400    0.0000 C   0  0  0  0  0  0  0  0  0  0  0  0
    0.0000    1.5000    0.0000 C   0  0  0  0  0  0  0  0  0  0  0  0
    0.0000    0.0000    0.0000 O   0  0  0  0  0  0  0  0  0  0  0  0
   -1.2990    3.7500    0.0000 C   0  0  3  0  0  0  0  0  0  0  0  0
   -2.5980    4.5000    0.0000 C   0  0  0  0  0  0  0  0  0  0  0  0
   -3.8970    3.7500    0.0000 O   0  0  0  0  0  0  0  0  0  0  0  0
   -2.5980    6.0000    0.0000 N   0  0  0  0  0  0  0  0  0  0  0  0
   -3.8970    6.7500    0.0000 C   0  0  0  0  0  0  0  0  0  0  0  0
   -3.8970    8.2500    0.0000 C   0  0  0  0  0  0  0  0  0  0  0  0
   -5.1960    9.0000    0.0000 C   0  0  0  0  0  0  0  0  0  0  0  0
   -5.1960   10.5000    0.0000 O   0  0  0  0  0  0  0  0  0  0  0  0
    0.0000    4.5000    0.0000 O   0  0  0  0  0  0  0  0  0  0  0  0
  1  2  1  0  0  0  0
  2  3  1  0  0  0  0
  2  4  1  0  0  0  0
  2  6  1  0  0  0  0
  4  5  1  0  0  0  0
  6  7  1  0  0  0  0
  6 14  1  0  0  0  0
  7  8  2  0  0  0  0
  7  9  1  0  0  0  0
  9 10  1  0  0  0  0
 10 11  1  0  0  0  0
 11 12  1  0  0  0  0
 12 13  1  0  0  0  0
M  END
>  <n>
79

>  <SMILES>
OCC([C@@H](O)C(=O)NCCCO)(C)C

>  <IC50>
>1000

>  <Class>
0

>  <NAME>
AZ135

>  <INCHI_KEY>
SNPLKNRPJHDVJA-ZETCQYMHSA-N

>  <Reference>
Mitigating the inhibition of human Bile Salt Export Pump by drugs_ opportunities provided by physicochemical property modulation,  in-silico modeling and structural modification_SI

$$$$
AZ136
  MOE2013           2D

 37 39  0  0  1  0  0  0  0  0999 V2000
    7.7940    1.5000    0.0000 C   0  0  0  0  0  0  0  0  0  0  0  0
    6.4950    2.2500    0.0000 C   0  0  0  0  0  0  0  0  0  0  0  0
    5.1960    1.5000    0.0000 C   0  0  0  0  0  0  0  0  0  0  0  0
    3.8970    2.2500    0.0000 S   0  0  0  0  0  0  0  0  0  0  0  0
    2.5980    1.5000    0.0000 C   0  0  0  0  0  0  0  0  0  0  0  0
    2.5980    0.0000    0.0000 N   0  0  0  0  0  0  0  0  0  0  0  0
    1.2990   -0.7500    0.0000 C   0  0  0  0  0  0  0  0  0  0  0  0
    0.0000    0.0000    0.0000 C   0  0  0  0  0  0  0  0  0  0  0  0
    0.0000    1.5000    0.0000 C   0  0  0  0  0  0  0  0  0  0  0  0
    1.2990    2.2500    0.0000 N   0  0  0  0  0  0  0  0  0  0  0  0
   -1.4270    1.9640    0.0000 N   0  0  0  0  0  0  0  0  0  0  0  0
   -2.3080    0.7500    0.0000 C   0  0  0  0  0  0  0  0  0  0  0  0
   -1.4270   -0.4640    0.0000 N   0  0  0  0  0  0  0  0  0  0  0  0
   -1.8900    3.3900    0.0000 C   0  0  3  0  0  0  0  0  0  0  0  0
   -1.0080    4.6040    0.0000 C   0  0  3  0  0  0  0  0  0  0  0  0
   -1.8900    5.8170    0.0000 C   0  0  3  0  0  0  0  0  0  0  0  0
   -3.3170    5.3540    0.0000 C   0  0  3  0  0  0  0  0  0  0  0  0
   -3.3170    3.8540    0.0000 O   0  0  0  0  0  0  0  0  0  0  0  0
   -4.5300    6.2350    0.0000 C   0  0  0  0  0  0  0  0  0  0  0  0
   -4.3730    7.7270    0.0000 O   0  0  0  0  0  0  0  0  0  0  0  0
   -5.5870    8.6090    0.0000 P   0  0  3  0  0  0  0  0  0  0  0  0
   -7.0290    9.0220    0.0000 O   0  0  0  0  0  0  0  0  0  0  0  0
   -6.2440    7.2610    0.0000 O   0  0  0  0  0  0  0  0  0  0  0  0
   -5.4300   10.1010    0.0000 O   0  0  0  0  0  0  0  0  0  0  0  0
   -6.6440   10.9820    0.0000 P   0  0  3  0  0  0  0  0  0  0  0  0
   -8.0860   11.3960    0.0000 O   0  0  0  0  0  0  0  0  0  0  0  0
   -6.4870   12.4740    0.0000 C   0  0  0  0  0  0  0  0  0  0  0  0
   -7.7000   13.3560    0.0000 P   0  0  0  0  0  0  0  0  0  0  0  0
   -7.5440   14.8480    0.0000 O   0  0  0  0  0  0  0  0  0  0  0  0
   -9.1420   13.7690    0.0000 O   0  0  0  0  0  0  0  0  0  0  0  0
   -8.3580   12.0080    0.0000 O   0  0  0  0  0  0  0  0  0  0  0  0
   -5.0450   12.0610    0.0000 Cl  0  0  0  0  0  0  0  0  0  0  0  0
   -5.8290   13.8220    0.0000 Cl  0  0  0  0  0  0  0  0  0  0  0  0
   -7.3010    9.6340    0.0000 O   0  0  0  0  0  0  0  0  0  0  0  0
   -1.4270    7.2440    0.0000 O   0  0  0  0  0  0  0  0  0  0  0  0
    0.4920    4.6040    0.0000 O   0  0  0  0  0  0  0  0  0  0  0  0
    1.2990   -2.2500    0.0000 N   0  0  0  0  0  0  0  0  0  0  0  0
  1  2  1  0  0  0  0
  2  3  1  0  0  0  0
  3  4  1  0  0  0  0
  4  5  1  0  0  0  0
  5  6  1  0  0  0  0
  5 10  2  0  0  0  0
  6  7  2  0  0  0  0
  7  8  1  0  0  0  0
  7 37  1  0  0  0  0
  8  9  2  0  0  0  0
  8 13  1  0  0  0  0
  9 10  1  0  0  0  0
  9 11  1  0  0  0  0
 11 12  1  0  0  0  0
 11 14  1  0  0  0  0
 12 13  2  0  0  0  0
 14 15  1  0  0  0  0
 14 18  1  0  0  0  0
 15 16  1  0  0  0  0
 15 36  1  0  0  0  0
 16 17  1  0  0  0  0
 16 35  1  0  0  0  0
 17 18  1  0  0  0  0
 17 19  1  0  0  0  0
 19 20  1  0  0  0  0
 20 21  1  0  0  0  0
 21 22  2  0  0  0  0
 21 23  1  0  0  0  0
 21 24  1  0  0  0  0
 24 25  1  0  0  0  0
 25 26  2  0  0  0  0
 25 27  1  0  0  0  0
 25 34  1  0  0  0  0
 27 28  1  0  0  0  0
 27 32  1  0  0  0  0
 27 33  1  0  0  0  0
 28 29  2  0  0  0  0
 28 30  1  0  0  0  0
 28 31  1  0  0  0  0
M  END
>  <n>
80

>  <SMILES>
ClC(Cl)(P(OP(OC[C@H]1O[C@@H](n2c3nc(SCCC)nc(N)c3nc2)[C@H](O)[C@@H]1O)(O)=O)(O)=O)P(O)(O)=O

>  <IC50>
>1000

>  <Class>
0

>  <NAME>
AZ136

>  <INCHI_KEY>
ZLIAJZQKKBOFJR-WOUKDFQISA-N

>  <Reference>
Mitigating the inhibition of human Bile Salt Export Pump by drugs_ opportunities provided by physicochemical property modulation,  in-silico modeling and structural modification_SI

$$$$
AZ137
  MOE2013           2D

 29 32  0  0  1  0  0  0  0  0999 V2000
   -6.2010   10.5510    0.0000 C   0  0  0  0  0  0  0  0  0  0  0  0
   -7.6500   10.1630    0.0000 C   0  0  3  0  0  0  0  0  0  0  0  0
   -8.7110   11.2230    0.0000 C   0  0  0  0  0  0  0  0  0  0  0  0
   -8.3220   12.6720    0.0000 O   0  0  0  0  0  0  0  0  0  0  0  0
   -8.0380    8.7140    0.0000 N   0  0  0  0  0  0  0  0  0  0  0  0
   -6.9780    7.6530    0.0000 C   0  0  0  0  0  0  0  0  0  0  0  0
   -7.3660    6.2040    0.0000 C   0  0  0  0  0  0  0  0  0  0  0  0
   -6.3050    5.1440    0.0000 C   0  0  0  0  0  0  0  0  0  0  0  0
   -6.6930    3.6950    0.0000 C   0  0  0  0  0  0  0  0  0  0  0  0
   -8.1420    3.3060    0.0000 C   0  0  0  0  0  0  0  0  0  0  0  0
   -8.5300    1.8580    0.0000 C   0  0  0  0  0  0  0  0  0  0  0  0
   -7.4700    0.7970    0.0000 C   0  0  0  0  0  0  0  0  0  0  0  0
   -6.0210    1.1850    0.0000 C   0  0  0  0  0  0  0  0  0  0  0  0
   -5.6330    2.6340    0.0000 C   0  0  0  0  0  0  0  0  0  0  0  0
   -4.9600    0.1240    0.0000 C   0  0  0  0  0  0  0  0  0  0  0  0
   -5.3490   -1.3240    0.0000 O   0  0  0  0  0  0  0  0  0  0  0  0
   -3.5110    0.5130    0.0000 N   0  0  0  0  0  0  0  0  0  0  0  0
   -2.4510   -0.5480    0.0000 C   0  0  0  0  0  0  0  0  0  0  0  0
   -1.0020   -0.1600    0.0000 C   0  0  0  0  0  0  0  0  0  0  0  0
   -0.5890   -0.8740    0.0000 C   0  0  0  0  0  0  0  0  0  0  0  0
    0.2090   -0.6650    0.0000 C   0  0  0  0  0  0  0  0  0  0  0  0
    1.0020   -0.8740    0.0000 C   0  0  0  0  0  0  0  0  0  0  0  0
    0.5900   -0.1600    0.0000 C   0  0  0  0  0  0  0  0  0  0  0  0
   -0.2090   -0.3690    0.0000 C   0  0  0  0  0  0  0  0  0  0  0  0
    0.5900    0.6650    0.0000 C   0  0  0  0  0  0  0  0  0  0  0  0
   -0.2040    0.8740    0.0000 C   0  0  0  0  0  0  0  0  0  0  0  0
    0.2090    0.1600    0.0000 C   0  0  0  0  0  0  0  0  0  0  0  0
   -1.0020    0.6650    0.0000 C   0  0  0  0  0  0  0  0  0  0  0  0
   -7.8580   -0.6520    0.0000 Cl  0  0  0  0  0  0  0  0  0  0  0  0
  1  2  1  0  0  0  0
  2  3  1  0  0  0  0
  2  5  1  0  0  0  0
  3  4  1  0  0  0  0
  5  6  1  0  0  0  0
  6  7  1  0  0  0  0
  7  8  1  0  0  0  0
  8  9  1  0  0  0  0
  9 10  1  0  0  0  0
  9 14  2  0  0  0  0
 10 11  2  0  0  0  0
 11 12  1  0  0  0  0
 12 13  2  0  0  0  0
 12 29  1  0  0  0  0
 13 14  1  0  0  0  0
 13 15  1  0  0  0  0
 15 16  2  0  0  0  0
 15 17  1  0  0  0  0
 17 18  1  0  0  0  0
 18 19  1  0  0  0  0
 19 20  1  0  0  0  0
 19 24  1  0  0  0  0
 19 28  1  0  0  0  0
 20 21  1  0  0  0  0
 21 22  1  0  0  0  0
 21 27  1  0  0  0  0
 22 23  1  0  0  0  0
 23 24  1  0  0  0  0
 23 25  1  0  0  0  0
 25 26  1  0  0  0  0
 26 27  1  0  0  0  0
 26 28  1  0  0  0  0
M  END
>  <n>
81

>  <SMILES>
Clc1ccc(cc1C(=O)NCC12CC3CC(C1)CC(C2)C3)CCCN[C@@H](CO)C

>  <IC50>
65.56

>  <Class>
0

>  <NAME>
AZ137

>  <INCHI_KEY>
WPWSCNZLYJDLIU-SGGRRFJASA-N

>  <Reference>
Mitigating the inhibition of human Bile Salt Export Pump by drugs_ opportunities provided by physicochemical property modulation,  in-silico modeling and structural modification_SI

$$$$
AZ139
  MOE2013           2D

 31 33  0  0  1  0  0  0  0  0999 V2000
    5.1960  -16.5000    0.0000 C   0  0  0  0  0  0  0  0  0  0  0  0
    3.8970  -15.7500    0.0000 C   0  0  0  0  0  0  0  0  0  0  0  0
    2.5980  -16.5000    0.0000 O   0  0  0  0  0  0  0  0  0  0  0  0
    3.8970  -14.2500    0.0000 N   0  0  0  0  0  0  0  0  0  0  0  0
    5.1960  -13.5000    0.0000 C   0  0  0  0  0  0  0  0  0  0  0  0
    6.4950  -14.2500    0.0000 C   0  0  0  0  0  0  0  0  0  0  0  0
    7.7940  -13.5000    0.0000 C   0  0  0  0  0  0  0  0  0  0  0  0
    7.7940  -12.0000    0.0000 C   0  0  0  0  0  0  0  0  0  0  0  0
    6.4950  -11.2500    0.0000 C   0  0  0  0  0  0  0  0  0  0  0  0
    5.1960  -12.0000    0.0000 C   0  0  0  0  0  0  0  0  0  0  0  0
    3.8970  -11.2500    0.0000 O   0  0  0  0  0  0  0  0  0  0  0  0
    3.8970   -9.7500    0.0000 C   0  0  0  0  0  0  0  0  0  0  0  0
    2.5980   -9.0000    0.0000 C   0  0  2  0  0  0  0  0  0  0  0  0
    1.1210   -8.7400    0.0000 C   0  0  0  0  0  0  0  0  0  0  0  0
    2.5980   -7.5000    0.0000 C   0  0  0  0  0  0  0  0  0  0  0  0
    1.2990   -6.7500    0.0000 N   0  0  0  0  0  0  0  0  0  0  0  0
    1.2990   -5.2500    0.0000 C   0  0  0  0  0  0  0  0  0  0  0  0
    2.5980   -4.5000    0.0000 C   0  0  0  0  0  0  0  0  0  0  0  0
    2.5980   -3.0000    0.0000 C   0  0  0  0  0  0  0  0  0  0  0  0
    1.2990   -2.2500    0.0000 N   0  0  0  0  0  0  0  0  0  0  0  0
    0.0000   -3.0000    0.0000 C   0  0  0  0  0  0  0  0  0  0  0  0
    0.0000   -4.5000    0.0000 C   0  0  0  0  0  0  0  0  0  0  0  0
    1.2990   -0.7500    0.0000 C   0  0  0  0  0  0  0  0  0  0  0  0
    0.0000    0.0000    0.0000 C   0  0  0  0  0  0  0  0  0  0  0  0
    0.0000    1.5000    0.0000 C   0  0  0  0  0  0  0  0  0  0  0  0
   -1.2990    2.2500    0.0000 C   0  0  0  0  0  0  0  0  0  0  0  0
   -2.5980    1.5000    0.0000 C   0  0  0  0  0  0  0  0  0  0  0  0
   -2.5980    0.0000    0.0000 C   0  0  0  0  0  0  0  0  0  0  0  0
   -1.2990   -0.7500    0.0000 C   0  0  0  0  0  0  0  0  0  0  0  0
   -3.8970    2.2500    0.0000 Cl  0  0  0  0  0  0  0  0  0  0  0  0
    2.0850  -10.4100    0.0000 O   0  0  0  0  0  0  0  0  0  0  0  0
  1  2  1  0  0  0  0
  2  3  2  0  0  0  0
  2  4  1  0  0  0  0
  4  5  1  0  0  0  0
  5  6  1  0  0  0  0
  5 10  2  0  0  0  0
  6  7  2  0  0  0  0
  7  8  1  0  0  0  0
  8  9  2  0  0  0  0
  9 10  1  0  0  0  0
 10 11  1  0  0  0  0
 11 12  1  0  0  0  0
 12 13  1  0  0  0  0
 13 14  1  6  0  0  0
 13 15  1  0  0  0  0
 13 31  1  1  0  0  0
 15 16  1  0  0  0  0
 16 17  1  0  0  0  0
 17 18  1  0  0  0  0
 17 22  1  0  0  0  0
 18 19  1  0  0  0  0
 19 20  1  0  0  0  0
 20 21  1  0  0  0  0
 20 23  1  0  0  0  0
 21 22  1  0  0  0  0
 23 24  1  0  0  0  0
 24 25  1  0  0  0  0
 24 29  2  0  0  0  0
 25 26  2  0  0  0  0
 26 27  1  0  0  0  0
 27 28  2  0  0  0  0
 27 30  1  0  0  0  0
 28 29  1  0  0  0  0
M  END
>  <n>
83

>  <SMILES>
Clc1ccc(cc1)CN1CCC(NC[C@](O)(COc2ccccc2NC(=O)C)C)CC1

>  <IC50>
71.54

>  <Class>
0

>  <NAME>
AZ139

>  <INCHI_KEY>
UHWWMQGKINJTML-DEOSSOPVSA-N

>  <Reference>
Mitigating the inhibition of human Bile Salt Export Pump by drugs_ opportunities provided by physicochemical property modulation,  in-silico modeling and structural modification_SI

$$$$
AZ140
  MOE2013           2D

 30 32  0  0  1  0  0  0  0  0999 V2000
    3.8970   -0.7500    0.0000 C   0  0  0  0  0  0  0  0  0  0  0  0
    2.5980    0.0000    0.0000 C   0  0  0  0  0  0  0  0  0  0  0  0
    2.5980    1.5000    0.0000 O   0  0  0  0  0  0  0  0  0  0  0  0
    1.2990   -0.7500    0.0000 N   0  0  0  0  0  0  0  0  0  0  0  0
    0.0000    0.0000    0.0000 C   0  0  0  0  0  0  0  0  0  0  0  0
    0.0000    1.5000    0.0000 C   0  0  0  0  0  0  0  0  0  0  0  0
   -1.2990    2.2500    0.0000 C   0  0  0  0  0  0  0  0  0  0  0  0
   -2.5980    1.5000    0.0000 C   0  0  0  0  0  0  0  0  0  0  0  0
   -2.5980    0.0000    0.0000 C   0  0  0  0  0  0  0  0  0  0  0  0
   -1.2990   -0.7500    0.0000 C   0  0  0  0  0  0  0  0  0  0  0  0
   -1.2990   -2.2500    0.0000 O   0  0  0  0  0  0  0  0  0  0  0  0
   -2.5980   -3.0000    0.0000 C   0  0  0  0  0  0  0  0  0  0  0  0
   -2.5980   -4.5000    0.0000 C   0  0  3  0  0  0  0  0  0  0  0  0
   -3.8970   -5.2500    0.0000 C   0  0  0  0  0  0  0  0  0  0  0  0
   -3.8970   -6.7500    0.0000 N   0  0  0  0  0  0  0  0  0  0  0  0
   -5.1960   -7.5000    0.0000 C   0  0  0  0  0  0  0  0  0  0  0  0
   -6.4950   -6.7500    0.0000 C   0  0  0  0  0  0  0  0  0  0  0  0
   -7.7940   -7.5000    0.0000 C   0  0  0  0  0  0  0  0  0  0  0  0
   -7.7940   -9.0000    0.0000 N   0  0  0  0  0  0  0  0  0  0  0  0
   -6.4950   -9.7500    0.0000 C   0  0  0  0  0  0  0  0  0  0  0  0
   -5.1960   -9.0000    0.0000 C   0  0  0  0  0  0  0  0  0  0  0  0
   -9.0930   -9.7500    0.0000 C   0  0  0  0  0  0  0  0  0  0  0  0
   -9.0930  -11.2500    0.0000 C   0  0  0  0  0  0  0  0  0  0  0  0
  -10.3920  -12.0000    0.0000 C   0  0  0  0  0  0  0  0  0  0  0  0
  -10.3920  -13.5000    0.0000 C   0  0  0  0  0  0  0  0  0  0  0  0
   -9.0930  -14.2500    0.0000 C   0  0  0  0  0  0  0  0  0  0  0  0
   -7.7940  -13.5000    0.0000 C   0  0  0  0  0  0  0  0  0  0  0  0
   -7.7940  -12.0000    0.0000 C   0  0  0  0  0  0  0  0  0  0  0  0
   -9.0930  -15.7500    0.0000 Cl  0  0  0  0  0  0  0  0  0  0  0  0
   -1.2990   -5.2500    0.0000 O   0  0  0  0  0  0  0  0  0  0  0  0
  1  2  1  0  0  0  0
  2  3  2  0  0  0  0
  2  4  1  0  0  0  0
  4  5  1  0  0  0  0
  5  6  1  0  0  0  0
  5 10  2  0  0  0  0
  6  7  2  0  0  0  0
  7  8  1  0  0  0  0
  8  9  2  0  0  0  0
  9 10  1  0  0  0  0
 10 11  1  0  0  0  0
 11 12  1  0  0  0  0
 12 13  1  0  0  0  0
 13 14  1  0  0  0  0
 13 30  1  0  0  0  0
 14 15  1  0  0  0  0
 15 16  1  0  0  0  0
 16 17  1  0  0  0  0
 16 21  1  0  0  0  0
 17 18  1  0  0  0  0
 18 19  1  0  0  0  0
 19 20  1  0  0  0  0
 19 22  1  0  0  0  0
 20 21  1  0  0  0  0
 22 23  1  0  0  0  0
 23 24  1  0  0  0  0
 23 28  2  0  0  0  0
 24 25  2  0  0  0  0
 25 26  1  0  0  0  0
 26 27  2  0  0  0  0
 26 29  1  0  0  0  0
 27 28  1  0  0  0  0
M  END
>  <n>
85

>  <SMILES>
Clc1ccc(cc1)CN1CCC(NC[C@H](O)COc2ccccc2NC(=O)C)CC1

>  <IC50>
55.57

>  <Class>
0

>  <NAME>
AZ140

>  <INCHI_KEY>
XZZZCTNRNINFIV-NRFANRHFSA-N

>  <Reference>
Mitigating the inhibition of human Bile Salt Export Pump by drugs_ opportunities provided by physicochemical property modulation,  in-silico modeling and structural modification_SI

$$$$
AZ143
  MOE2013           2D

 31 33  0  0  1  0  0  0  0  0999 V2000
   15.5880   -4.5000    0.0000 C   0  0  0  0  0  0  0  0  0  0  0  0
   15.5880   -3.0000    0.0000 C   0  0  0  0  0  0  0  0  0  0  0  0
   14.2890   -2.2500    0.0000 N   0  0  0  0  0  0  0  0  0  0  0  0
   12.9900   -3.0000    0.0000 C   0  0  0  0  0  0  0  0  0  0  0  0
   12.9900   -4.5000    0.0000 N   0  0  0  0  0  0  0  0  0  0  0  0
   14.2890   -5.2500    0.0000 C   0  0  0  0  0  0  0  0  0  0  0  0
   11.6910   -2.2500    0.0000 C   0  0  0  0  0  0  0  0  0  0  0  0
   10.3920   -3.0000    0.0000 C   0  0  0  0  0  0  0  0  0  0  0  0
    9.0930   -2.2500    0.0000 C   0  0  0  0  0  0  0  0  0  0  0  0
    7.7940   -3.0000    0.0000 C   0  0  3  0  0  0  0  0  0  0  0  0
    6.4950   -2.2500    0.0000 C   0  0  0  0  0  0  0  0  0  0  0  0
    5.1960   -3.0000    0.0000 S   0  0  0  0  0  0  0  0  0  0  0  0
    4.2320   -4.1490    0.0000 O   0  0  0  0  0  0  0  0  0  0  0  0
    6.1600   -4.1490    0.0000 O   0  0  0  0  0  0  0  0  0  0  0  0
    3.8970   -2.2500    0.0000 N   0  0  0  0  0  0  0  0  0  0  0  0
    3.8970   -0.7500    0.0000 C   0  0  0  0  0  0  0  0  0  0  0  0
    2.5980    0.0000    0.0000 C   0  0  0  0  0  0  0  0  0  0  0  0
    1.2990   -0.7500    0.0000 N   0  0  0  0  0  0  0  0  0  0  0  0
    1.2990   -2.2500    0.0000 C   0  0  0  0  0  0  0  0  0  0  0  0
    2.5980   -3.0000    0.0000 C   0  0  0  0  0  0  0  0  0  0  0  0
    0.0000    0.0000    0.0000 C   0  0  0  0  0  0  0  0  0  0  0  0
    0.0000    1.5000    0.0000 C   0  0  0  0  0  0  0  0  0  0  0  0
   -1.2990    2.2500    0.0000 C   0  0  0  0  0  0  0  0  0  0  0  0
   -2.5980    1.5000    0.0000 C   0  0  0  0  0  0  0  0  0  0  0  0
   -2.5980    0.0000    0.0000 C   0  0  0  0  0  0  0  0  0  0  0  0
   -1.2990   -0.7500    0.0000 N   0  0  0  0  0  0  0  0  0  0  0  0
   -3.8970    2.2500    0.0000 Cl  0  0  0  0  0  0  0  0  0  0  0  0
    7.7940   -4.5000    0.0000 N   0  0  0  0  0  0  0  0  0  0  0  0
    9.0930   -5.2500    0.0000 C   0  0  0  0  0  0  0  0  0  0  0  0
    9.0930   -6.7500    0.0000 O   0  0  0  0  0  0  0  0  0  0  0  0
    6.4950   -5.2500    0.0000 O   0  0  0  0  0  0  0  0  0  0  0  0
  1  2  1  0  0  0  0
  1  6  2  0  0  0  0
  2  3  2  0  0  0  0
  3  4  1  0  0  0  0
  4  5  2  0  0  0  0
  4  7  1  0  0  0  0
  5  6  1  0  0  0  0
  7  8  1  0  0  0  0
  8  9  1  0  0  0  0
  9 10  1  0  0  0  0
 10 11  1  0  0  0  0
 10 28  1  0  0  0  0
 11 12  1  0  0  0  0
 12 13  2  0  0  0  0
 12 14  2  0  0  0  0
 12 15  1  0  0  0  0
 15 16  1  0  0  0  0
 15 20  1  0  0  0  0
 16 17  1  0  0  0  0
 17 18  1  0  0  0  0
 18 19  1  0  0  0  0
 18 21  1  0  0  0  0
 19 20  1  0  0  0  0
 21 22  1  0  0  0  0
 21 26  2  0  0  0  0
 22 23  2  0  0  0  0
 23 24  1  0  0  0  0
 24 25  2  0  0  0  0
 24 27  1  0  0  0  0
 25 26  1  0  0  0  0
 28 29  1  0  0  0  0
 28 31  1  0  0  0  0
 29 30  2  0  0  0  0
M  END
>  <n>
88

>  <SMILES>
Clc1ccc(nc1)N1CCN(S(=O)(=O)C[C@@H](N(O)C=O)CCCc2ncccn2)CC1

>  <IC50>
<10

>  <Class>
1

>  <NAME>
AZ143

>  <INCHI_KEY>
UROQAABMDGPRDQ-KRWDZBQOSA-N

>  <Reference>
Mitigating the inhibition of human Bile Salt Export Pump by drugs_ opportunities provided by physicochemical property modulation,  in-silico modeling and structural modification_SI

$$$$
AZ144
  MOE2013           2D

 29 31  0  0  1  0  0  0  0  0999 V2000
    3.9940   -5.8190    0.0000 C   0  0  0  0  0  0  0  0  0  0  0  0
    3.2440   -4.5200    0.0000 C   0  0  0  0  0  0  0  0  0  0  0  0
    3.9940   -3.2210    0.0000 O   0  0  0  0  0  0  0  0  0  0  0  0
    1.7440   -4.5200    0.0000 O   0  0  0  0  0  0  0  0  0  0  0  0
    0.9940   -3.2210    0.0000 C   0  0  3  0  0  0  0  0  0  0  0  0
    1.8380   -1.9810    0.0000 C   0  0  3  0  0  0  0  0  0  0  0  0
    1.3960   -0.5480    0.0000 S   0  0  0  0  0  0  0  0  0  0  0  0
    0.0000    0.0000    0.0000 C   0  0  0  0  0  0  0  0  0  0  0  0
    0.0000    1.5000    0.0000 C   0  0  0  0  0  0  0  0  0  0  0  0
   -1.2990    2.2500    0.0000 C   0  0  0  0  0  0  0  0  0  0  0  0
   -2.5980    1.5000    0.0000 C   0  0  0  0  0  0  0  0  0  0  0  0
   -2.5980    0.0000    0.0000 C   0  0  0  0  0  0  0  0  0  0  0  0
   -1.2990   -0.7500    0.0000 C   0  0  0  0  0  0  0  0  0  0  0  0
   -1.5230   -2.2330    0.0000 N   0  0  0  0  0  0  0  0  0  0  0  0
   -0.5020   -3.3330    0.0000 C   0  0  0  0  0  0  0  0  0  0  0  0
   -1.0500   -4.7290    0.0000 O   0  0  0  0  0  0  0  0  0  0  0  0
   -2.9560   -2.6750    0.0000 C   0  0  0  0  0  0  0  0  0  0  0  0
   -4.0560   -1.6550    0.0000 C   0  0  0  0  0  0  0  0  0  0  0  0
   -5.4890   -2.0970    0.0000 N   0  0  0  0  0  0  0  0  0  0  0  0
   -6.5880   -1.0770    0.0000 C   0  0  0  0  0  0  0  0  0  0  0  0
   -5.8230   -3.5600    0.0000 C   0  0  0  0  0  0  0  0  0  0  0  0
    3.3220   -2.2050    0.0000 C   0  0  0  0  0  0  0  0  0  0  0  0
    3.8700   -3.6010    0.0000 C   0  0  0  0  0  0  0  0  0  0  0  0
    5.3530   -3.8250    0.0000 C   0  0  0  0  0  0  0  0  0  0  0  0
    6.2880   -2.6520    0.0000 C   0  0  0  0  0  0  0  0  0  0  0  0
    5.7400   -1.2560    0.0000 C   0  0  0  0  0  0  0  0  0  0  0  0
    4.2570   -1.0320    0.0000 C   0  0  0  0  0  0  0  0  0  0  0  0
    7.7710   -2.8760    0.0000 O   0  0  0  0  0  0  0  0  0  0  0  0
    8.7070   -1.7030    0.0000 C   0  0  0  0  0  0  0  0  0  0  0  0
  1  2  1  0  0  0  0
  2  3  2  0  0  0  0
  2  4  1  0  0  0  0
  4  5  1  0  0  0  0
  5  6  1  0  0  0  0
  5 15  1  0  0  0  0
  6  7  1  0  0  0  0
  6 22  1  0  0  0  0
  7  8  1  0  0  0  0
  8  9  1  0  0  0  0
  8 13  2  0  0  0  0
  9 10  2  0  0  0  0
 10 11  1  0  0  0  0
 11 12  2  0  0  0  0
 12 13  1  0  0  0  0
 13 14  1  0  0  0  0
 14 15  1  0  0  0  0
 14 17  1  0  0  0  0
 15 16  2  0  0  0  0
 17 18  1  0  0  0  0
 18 19  1  0  0  0  0
 19 20  1  0  0  0  0
 19 21  1  0  0  0  0
 22 23  1  0  0  0  0
 22 27  2  0  0  0  0
 23 24  2  0  0  0  0
 24 25  1  0  0  0  0
 25 26  2  0  0  0  0
 25 28  1  0  0  0  0
 26 27  1  0  0  0  0
 28 29  1  0  0  0  0
M  END
>  <n>
89

>  <SMILES>
S1c2c(N(CCN(C)C)C(=O)C(OC(=O)C)C1c1ccc(OC)cc1)cccc2

>  <IC50>
82.02

>  <Class>
0

>  <NAME>
AZ144

>  <INCHI_KEY>
HSUGRBWQSSZJOP-UHFFFAOYSA-N

>  <Reference>
Mitigating the inhibition of human Bile Salt Export Pump by drugs_ opportunities provided by physicochemical property modulation,  in-silico modeling and structural modification_SI

$$$$
AZ145
  MOE2013           2D

 23 26  0  0  1  0  0  0  0  0999 V2000
    1.3700    0.6100    0.0000 C   0  0  0  0  0  0  0  0  0  0  0  0
    0.0000    0.0000    0.0000 C   0  0  2  0  0  0  0  0  0  0  0  0
    0.0000    1.5000    0.0000 C   0  0  0  0  0  0  0  0  0  0  0  0
   -1.2990    2.2500    0.0000 C   0  0  0  0  0  0  0  0  0  0  0  0
   -2.5980    1.5000    0.0000 C   0  0  3  0  0  0  0  0  0  0  0  0
   -3.8970    2.2500    0.0000 C   0  0  0  0  0  0  0  0  0  0  0  0
   -3.8970    3.7500    0.0000 C   0  0  0  0  0  0  0  0  0  0  0  0
   -5.1960    4.5000    0.0000 C   0  0  0  0  0  0  0  0  0  0  0  0
   -6.4950    3.7500    0.0000 C   0  0  0  0  0  0  0  0  0  0  0  0
   -6.4950    2.2500    0.0000 C   0  0  0  0  0  0  0  0  0  0  0  0
   -5.1960    1.5000    0.0000 C   0  0  0  0  0  0  0  0  0  0  0  0
   -5.1960    0.0000    0.0000 C   0  0  0  0  0  0  0  0  0  0  0  0
   -3.8970   -0.7500    0.0000 C   0  0  0  0  0  0  0  0  0  0  0  0
   -2.5980    0.0000    0.0000 C   0  0  3  0  0  0  0  0  0  0  0  0
   -1.2990   -0.7500    0.0000 C   0  0  3  0  0  0  0  0  0  0  0  0
   -0.9870   -2.2170    0.0000 C   0  0  0  0  0  0  0  0  0  0  0  0
    0.5050   -2.3740    0.0000 C   0  0  0  0  0  0  0  0  0  0  0  0
    1.1150   -1.0040    0.0000 C   0  0  1  0  0  0  0  0  0  0  0  0
    2.4140   -1.7540    0.0000 C   0  0  0  0  0  0  0  0  0  0  0  0
    3.7130   -2.5040    0.0000 C   0  0  0  0  0  0  0  0  0  0  0  0
    1.9960    0.2100    0.0000 O   0  0  0  0  0  0  0  0  0  0  0  0
   -7.7940    4.5000    0.0000 O   0  0  0  0  0  0  0  0  0  0  0  0
   -7.7940    6.0000    0.0000 C   0  0  0  0  0  0  0  0  0  0  0  0
  2  1  1  1  0  0  0
  2  3  1  0  0  0  0
  2 15  1  0  0  0  0
  2 18  1  0  0  0  0
  3  4  1  0  0  0  0
  4  5  1  0  0  0  0
  5  6  1  0  0  0  0
  5 14  1  0  0  0  0
  6  7  1  0  0  0  0
  6 11  2  0  0  0  0
  7  8  2  0  0  0  0
  8  9  1  0  0  0  0
  9 10  2  0  0  0  0
  9 22  1  0  0  0  0
 10 11  1  0  0  0  0
 11 12  1  0  0  0  0
 12 13  1  0  0  0  0
 13 14  1  0  0  0  0
 14 15  1  0  0  0  0
 15 16  1  0  0  0  0
 16 17  1  0  0  0  0
 17 18  1  0  0  0  0
 18 19  1  6  0  0  0
 18 21  1  1  0  0  0
 19 20  3  0  0  0  0
 22 23  1  0  0  0  0
M  END
>  <n>
90

>  <SMILES>
O(C)c1cc2CC[C@H]3[C@@H]4CC[C@@](O)(C#C)[C@]4(CC[C@@H]3c2cc1)C

>  <IC50>
<10

>  <Class>
1

>  <NAME>
AZ145

>  <INCHI_KEY>
IMSSROKUHAOUJS-MJCUULBUSA-N

>  <Reference>
Mitigating the inhibition of human Bile Salt Export Pump by drugs_ opportunities provided by physicochemical property modulation,  in-silico modeling and structural modification_SI

$$$$
AZ146
  MOE2013           2D

 42 45  0  0  1  0  0  0  0  0999 V2000
    0.7430   -5.3570    0.0000 C   0  0  0  0  0  0  0  0  0  0  0  0
    2.1140   -4.7470    0.0000 C   0  0  3  0  0  0  0  0  0  0  0  0
    2.2700   -3.2550    0.0000 C   0  0  3  0  0  0  0  0  0  0  0  0
    1.0570   -2.3740    0.0000 C   0  0  3  0  0  0  0  0  0  0  0  0
   -0.3140   -2.9840    0.0000 C   0  0  3  0  0  0  0  0  0  0  0  0
   -0.4700   -4.4750    0.0000 C   0  0  3  0  0  0  0  0  0  0  0  0
   -1.8410   -5.0860    0.0000 N   0  0  0  0  0  0  0  0  0  0  0  0
   -1.5270   -2.1020    0.0000 O   0  0  0  0  0  0  0  0  0  0  0  0
   -2.8970   -2.7120    0.0000 C   0  0  3  0  0  0  0  0  0  0  0  0
   -4.1110   -1.8300    0.0000 C   0  0  3  0  0  0  0  0  0  0  0  0
   -5.4810   -2.4400    0.0000 C   0  0  3  0  0  0  0  0  0  0  0  0
   -5.6380   -3.9320    0.0000 C   0  0  3  0  0  0  0  0  0  0  0  0
   -4.4240   -4.8140    0.0000 C   0  0  3  0  0  0  0  0  0  0  0  0
   -3.0540   -4.2040    0.0000 O   0  0  0  0  0  0  0  0  0  0  0  0
   -4.5810   -6.3060    0.0000 C   0  0  0  0  0  0  0  0  0  0  0  0
   -5.9520   -6.9160    0.0000 O   0  0  0  0  0  0  0  0  0  0  0  0
   -7.0080   -4.5420    0.0000 O   0  0  0  0  0  0  0  0  0  0  0  0
   -6.6950   -1.5590    0.0000 O   0  0  0  0  0  0  0  0  0  0  0  0
   -3.9540   -0.3380    0.0000 N   0  0  0  0  0  0  0  0  0  0  0  0
    1.2140   -0.8820    0.0000 O   0  0  0  0  0  0  0  0  0  0  0  0
    0.0000    0.0000    0.0000 C   0  0  3  0  0  0  0  0  0  0  0  0
    0.0000    1.5000    0.0000 C   0  0  3  0  0  0  0  0  0  0  0  0
   -1.4270    1.9640    0.0000 C   0  0  3  0  0  0  0  0  0  0  0  0
   -2.3080    0.7500    0.0000 C   0  0  3  0  0  0  0  0  0  0  0  0
   -1.4270   -0.4640    0.0000 O   0  0  0  0  0  0  0  0  0  0  0  0
   -3.8080    0.7500    0.0000 C   0  0  0  0  0  0  0  0  0  0  0  0
   -4.5580    2.0490    0.0000 O   0  0  0  0  0  0  0  0  0  0  0  0
   -1.8900    3.3900    0.0000 O   0  0  0  0  0  0  0  0  0  0  0  0
   -0.8860    4.5050    0.0000 C   0  0  3  0  0  0  0  0  0  0  0  0
    0.5810    4.1930    0.0000 C   0  0  3  0  0  0  0  0  0  0  0  0
    1.5840    5.3080    0.0000 C   0  0  3  0  0  0  0  0  0  0  0  0
    1.1210    6.7340    0.0000 C   0  0  3  0  0  0  0  0  0  0  0  0
   -0.3460    7.0460    0.0000 C   0  0  3  0  0  0  0  0  0  0  0  0
   -1.3500    5.9310    0.0000 O   0  0  0  0  0  0  0  0  0  0  0  0
   -0.8100    8.4730    0.0000 C   0  0  0  0  0  0  0  0  0  0  0  0
    0.1940    9.5870    0.0000 N   0  0  0  0  0  0  0  0  0  0  0  0
    2.1250    7.8490    0.0000 O   0  0  0  0  0  0  0  0  0  0  0  0
    3.0520    4.9960    0.0000 O   0  0  0  0  0  0  0  0  0  0  0  0
    1.0440    2.7660    0.0000 N   0  0  0  0  0  0  0  0  0  0  0  0
    1.2140    2.3820    0.0000 O   0  0  0  0  0  0  0  0  0  0  0  0
    3.6410   -2.6450    0.0000 O   0  0  0  0  0  0  0  0  0  0  0  0
    3.3270   -5.6290    0.0000 N   0  0  0  0  0  0  0  0  0  0  0  0
  1  2  1  0  0  0  0
  1  6  1  0  0  0  0
  2  3  1  0  0  0  0
  2 42  1  0  0  0  0
  3  4  1  0  0  0  0
  3 41  1  0  0  0  0
  4  5  1  0  0  0  0
  4 20  1  0  0  0  0
  5  6  1  0  0  0  0
  5  8  1  0  0  0  0
  6  7  1  0  0  0  0
  8  9  1  0  0  0  0
  9 10  1  0  0  0  0
  9 14  1  0  0  0  0
 10 11  1  0  0  0  0
 10 19  1  0  0  0  0
 11 12  1  0  0  0  0
 11 18  1  0  0  0  0
 12 13  1  0  0  0  0
 12 17  1  0  0  0  0
 13 14  1  0  0  0  0
 13 15  1  0  0  0  0
 15 16  1  0  0  0  0
 20 21  1  0  0  0  0
 21 22  1  0  0  0  0
 21 25  1  0  0  0  0
 22 23  1  0  0  0  0
 22 40  1  0  0  0  0
 23 24  1  0  0  0  0
 23 28  1  0  0  0  0
 24 25  1  0  0  0  0
 24 26  1  0  0  0  0
 26 27  1  0  0  0  0
 28 29  1  0  0  0  0
 29 30  1  0  0  0  0
 29 34  1  0  0  0  0
 30 31  1  0  0  0  0
 30 39  1  0  0  0  0
 31 32  1  0  0  0  0
 31 38  1  0  0  0  0
 32 33  1  0  0  0  0
 32 37  1  0  0  0  0
 33 34  1  0  0  0  0
 33 35  1  0  0  0  0
 35 36  1  0  0  0  0
M  END
>  <n>
91

>  <SMILES>
O1[C@@H](CN)[C@@H](O)[C@H](O)[C@@H](N)[C@H]1O[C@H]1[C@@H](O)[C@@H](O[C@@H]1CO)O[C@H]1[C@H](O[C@H]2O[C@H](CO)[C@@H](O)[C@H](O)[C@H]2N)[C@@H](N)C[C@@H](N)[C@@H]1O

>  <IC50>
>1000

>  <Class>
0

>  <NAME>
AZ146

>  <INCHI_KEY>
UOZODPSAJZTQNH-LSWIJEOBSA-N

>  <Reference>
Mitigating the inhibition of human Bile Salt Export Pump by drugs_ opportunities provided by physicochemical property modulation,  in-silico modeling and structural modification_SI

$$$$
AZ148
  MOE2013           2D

 41 46  0  0  1  0  0  0  0  0999 V2000
  -12.5750    1.4220    0.0000 C   0  0  0  0  0  0  0  0  0  0  0  0
  -11.2760    0.6720    0.0000 C   0  0  3  0  0  0  0  0  0  0  0  0
  -11.2760   -0.8280    0.0000 C   0  0  3  0  0  0  0  0  0  0  0  0
   -9.9770   -1.5790    0.0000 C   0  0  3  0  0  0  0  0  0  0  0  0
   -8.6780   -0.8290    0.0000 C   0  0  3  0  0  0  0  0  0  0  0  0
   -8.6780    0.6710    0.0000 C   0  0  3  0  0  0  0  0  0  0  0  0
   -9.9770    1.4210    0.0000 O   0  0  0  0  0  0  0  0  0  0  0  0
   -7.3790    1.4210    0.0000 O   0  0  0  0  0  0  0  0  0  0  0  0
   -6.0800    0.6710    0.0000 C   0  0  3  0  0  0  0  0  0  0  0  0
   -6.0800   -0.7290    0.0000 C   0  0  0  0  0  0  0  0  0  0  0  0
   -4.8670   -1.4290    0.0000 C   0  0  3  0  0  0  0  0  0  0  0  0
   -3.6550   -0.7290    0.0000 C   0  0  2  0  0  0  0  0  0  0  0  0
   -2.4430   -1.4290    0.0000 C   0  0  3  0  0  0  0  0  0  0  0  0
   -1.2300   -0.7290    0.0000 C   0  0  3  0  0  0  0  0  0  0  0  0
   -1.2300    0.6710    0.0000 C   0  0  0  0  0  0  0  0  0  0  0  0
   -2.4430    1.3710    0.0000 C   0  0  0  0  0  0  0  0  0  0  0  0
   -3.6550    0.6710    0.0000 C   0  0  2  0  0  0  0  0  0  0  0  0
   -4.8670    1.3710    0.0000 C   0  0  0  0  0  0  0  0  0  0  0  0
   -3.6550    2.1710    0.0000 O   0  0  0  0  0  0  0  0  0  0  0  0
   -0.0180   -1.4290    0.0000 C   0  0  1  0  0  0  0  0  0  0  0  0
    1.3140   -0.9960    0.0000 C   0  0  0  0  0  0  0  0  0  0  0  0
    2.1370   -2.1290    0.0000 C   0  0  0  0  0  0  0  0  0  0  0  0
    1.3140   -3.2610    0.0000 C   0  0  3  0  0  0  0  0  0  0  0  0
   -0.0180   -2.8290    0.0000 C   0  0  1  0  0  0  0  0  0  0  0  0
   -1.2300   -3.5290    0.0000 C   0  0  0  0  0  0  0  0  0  0  0  0
   -2.4430   -2.8290    0.0000 C   0  0  3  0  0  0  0  0  0  0  0  0
   -3.7420   -3.5790    0.0000 O   0  0  0  0  0  0  0  0  0  0  0  0
    0.1390   -4.3200    0.0000 C   0  0  0  0  0  0  0  0  0  0  0  0
    1.7770   -4.6880    0.0000 C   0  0  0  0  0  0  0  0  0  0  0  0
    0.8960   -5.9010    0.0000 C   0  0  0  0  0  0  0  0  0  0  0  0
    1.7770   -7.1150    0.0000 C   0  0  0  0  0  0  0  0  0  0  0  0
    1.3140   -8.5410    0.0000 O   0  0  0  0  0  0  0  0  0  0  0  0
    3.2040   -6.6510    0.0000 O   0  0  0  0  0  0  0  0  0  0  0  0
    3.2040   -5.1510    0.0000 C   0  0  0  0  0  0  0  0  0  0  0  0
    0.1390    0.0630    0.0000 O   0  0  0  0  0  0  0  0  0  0  0  0
   -3.6550   -2.2290    0.0000 C   0  0  0  0  0  0  0  0  0  0  0  0
   -2.3560   -2.9790    0.0000 O   0  0  0  0  0  0  0  0  0  0  0  0
   -4.8670   -2.9290    0.0000 O   0  0  0  0  0  0  0  0  0  0  0  0
   -7.3790   -1.5790    0.0000 O   0  0  0  0  0  0  0  0  0  0  0  0
   -9.9770   -3.0790    0.0000 O   0  0  0  0  0  0  0  0  0  0  0  0
  -12.5750   -1.5780    0.0000 O   0  0  0  0  0  0  0  0  0  0  0  0
  1  2  1  0  0  0  0
  2  3  1  0  0  0  0
  2  7  1  0  0  0  0
  3  4  1  0  0  0  0
  3 41  1  0  0  0  0
  4  5  1  0  0  0  0
  4 40  1  0  0  0  0
  5  6  1  0  0  0  0
  5 39  1  0  0  0  0
  6  7  1  0  0  0  0
  6  8  1  0  0  0  0
  8  9  1  0  0  0  0
  9 10  1  0  0  0  0
  9 18  1  0  0  0  0
 10 11  1  0  0  0  0
 11 12  1  0  0  0  0
 11 38  1  0  0  0  0
 12 13  1  0  0  0  0
 12 17  1  0  0  0  0
 12 36  1  6  0  0  0
 13 14  1  0  0  0  0
 13 26  1  0  0  0  0
 14 15  1  0  0  0  0
 14 20  1  0  0  0  0
 15 16  1  0  0  0  0
 16 17  1  0  0  0  0
 17 18  1  0  0  0  0
 17 19  1  6  0  0  0
 20 21  1  0  0  0  0
 20 24  1  0  0  0  0
 20 35  1  6  0  0  0
 21 22  1  0  0  0  0
 22 23  1  0  0  0  0
 23 24  1  0  0  0  0
 23 29  1  0  0  0  0
 24 25  1  0  0  0  0
 24 28  1  6  0  0  0
 25 26  1  0  0  0  0
 26 27  1  0  0  0  0
 29 30  2  0  0  0  0
 29 34  1  0  0  0  0
 30 31  1  0  0  0  0
 31 32  2  0  0  0  0
 31 33  1  0  0  0  0
 33 34  1  0  0  0  0
 36 37  1  0  0  0  0
M  END
>  <n>
93

>  <SMILES>
O1CC(=CC1=O)[C@H]1CC[C@]2(O)[C@H]3[C@@H]([C@]4(CO)[C@@](O)(C[C@@H](O[C@@H]5O[C@@H](C)[C@H](O)[C@@H](O)[C@H]5O)C[C@H]4O)CC3)[C@H](O)C[C@]12C

>  <IC50>
>1000

>  <Class>
0

>  <NAME>
AZ148

>  <INCHI_KEY>
LPMXVESGRSUGHW-HBYQJFLCSA-N

>  <Reference>
Mitigating the inhibition of human Bile Salt Export Pump by drugs_ opportunities provided by physicochemical property modulation,  in-silico modeling and structural modification_SI

$$$$
AZ149
  MOE2013           2D

 25 25  0  0  1  0  0  0  0  0999 V2000
   10.3350   -1.0860    0.0000 C   0  0  0  0  0  0  0  0  0  0  0  0
    8.9650   -1.6960    0.0000 C   0  0  0  0  0  0  0  0  0  0  0  0
    7.7520   -0.8150    0.0000 C   0  0  0  0  0  0  0  0  0  0  0  0
    6.3810   -1.4250    0.0000 C   0  0  0  0  0  0  0  0  0  0  0  0
    5.1680   -0.5430    0.0000 C   0  0  0  0  0  0  0  0  0  0  0  0
    3.7970   -1.1530    0.0000 C   0  0  3  0  0  0  0  0  0  0  0  0
    2.5840   -0.2720    0.0000 C   0  0  0  0  0  0  0  0  0  0  0  0
    1.2140   -0.8820    0.0000 C   0  0  0  0  0  0  0  0  0  0  0  0
    0.0000    0.0000    0.0000 C   0  0  3  0  0  0  0  0  0  0  0  0
    0.0000    1.5000    0.0000 C   0  0  3  0  0  0  0  0  0  0  0  0
   -1.4270    1.9640    0.0000 C   0  0  0  0  0  0  0  0  0  0  0  0
   -2.3080    0.7500    0.0000 C   0  0  0  0  0  0  0  0  0  0  0  0
   -3.8080    0.7500    0.0000 O   0  0  0  0  0  0  0  0  0  0  0  0
   -1.4270   -0.4640    0.0000 C   0  0  3  0  0  0  0  0  0  0  0  0
   -1.8900   -1.8900    0.0000 C   0  0  0  0  0  0  0  0  0  0  0  0
   -3.3570   -2.2020    0.0000 C   0  0  0  0  0  0  0  0  0  0  0  0
   -3.8210   -3.6290    0.0000 C   0  0  0  0  0  0  0  0  0  0  0  0
   -2.8170   -4.7430    0.0000 C   0  0  0  0  0  0  0  0  0  0  0  0
   -3.2810   -6.1700    0.0000 C   0  0  0  0  0  0  0  0  0  0  0  0
   -2.2770   -7.2850    0.0000 C   0  0  0  0  0  0  0  0  0  0  0  0
   -2.7400   -8.7110    0.0000 C   0  0  0  0  0  0  0  0  0  0  0  0
   -1.7370   -9.8260    0.0000 O   0  0  0  0  0  0  0  0  0  0  0  0
   -4.2080   -9.0230    0.0000 O   0  0  0  0  0  0  0  0  0  0  0  0
    1.2140    2.3820    0.0000 O   0  0  0  0  0  0  0  0  0  0  0  0
    3.6410   -2.6450    0.0000 O   0  0  0  0  0  0  0  0  0  0  0  0
  1  2  1  0  0  0  0
  2  3  1  0  0  0  0
  3  4  1  0  0  0  0
  4  5  1  0  0  0  0
  5  6  1  0  0  0  0
  6  7  1  0  0  0  0
  6 25  1  0  0  0  0
  7  8  2  0  0  0  0
  8  9  1  0  0  0  0
  9 10  1  0  0  0  0
  9 14  1  0  0  0  0
 10 11  1  0  0  0  0
 10 24  1  0  0  0  0
 11 12  1  0  0  0  0
 12 13  2  0  0  0  0
 12 14  1  0  0  0  0
 14 15  1  0  0  0  0
 15 16  1  0  0  0  0
 16 17  2  0  0  0  0
 17 18  1  0  0  0  0
 18 19  1  0  0  0  0
 19 20  1  0  0  0  0
 20 21  1  0  0  0  0
 21 22  2  0  0  0  0
 21 23  1  0  0  0  0
M  END
>  <n>
94

>  <SMILES>
O=C1C[C@@H](O)[C@H](\C=C\[C@@H](O)CCCCC)[C@H]1C\C=C/CCCC(O)=O

>  <IC50>
>1000

>  <Class>
0

>  <NAME>
AZ149

>  <INCHI_KEY>
XEYBRNLFEZDVAW-ARSRFYASSA-N

>  <Reference>
Mitigating the inhibition of human Bile Salt Export Pump by drugs_ opportunities provided by physicochemical property modulation,  in-silico modeling and structural modification_SI

$$$$
AZ150
  MOE2013           2D

 28 31  0  0  1  0  0  0  0  0999 V2000
    1.3700    0.6100    0.0000 C   0  0  0  0  0  0  0  0  0  0  0  0
    0.0000    0.0000    0.0000 C   0  0  2  0  0  0  0  0  0  0  0  0
    0.0000    1.5000    0.0000 C   0  0  0  0  0  0  0  0  0  0  0  0
   -1.2990    2.2500    0.0000 C   0  0  3  0  0  0  0  0  0  0  0  0
   -2.5980    1.5000    0.0000 C   0  0  1  0  0  0  0  0  0  0  0  0
   -2.5980    0.0000    0.0000 C   0  0  3  0  0  0  0  0  0  0  0  0
   -1.2990   -0.7500    0.0000 C   0  0  3  0  0  0  0  0  0  0  0  0
   -0.9870   -2.2170    0.0000 C   0  0  0  0  0  0  0  0  0  0  0  0
    0.5050   -2.3740    0.0000 C   0  0  3  0  0  0  0  0  0  0  0  0
    1.1150   -1.0040    0.0000 C   0  0  2  0  0  0  0  0  0  0  0  0
    2.4140   -1.7540    0.0000 C   0  0  0  0  0  0  0  0  0  0  0  0
    3.7130   -1.0040    0.0000 O   0  0  0  0  0  0  0  0  0  0  0  0
    2.4140   -3.2540    0.0000 C   0  0  0  0  0  0  0  0  0  0  0  0
    3.7130   -4.0040    0.0000 O   0  0  0  0  0  0  0  0  0  0  0  0
    1.9960    0.2100    0.0000 O   0  0  0  0  0  0  0  0  0  0  0  0
    1.2550   -3.6730    0.0000 O   0  0  0  0  0  0  0  0  0  0  0  0
   -3.8970   -0.7500    0.0000 C   0  0  0  0  0  0  0  0  0  0  0  0
   -5.1960    0.0000    0.0000 C   0  0  0  0  0  0  0  0  0  0  0  0
   -5.1960    1.5000    0.0000 C   0  0  0  0  0  0  0  0  0  0  0  0
   -6.4950    2.2500    0.0000 C   0  0  0  0  0  0  0  0  0  0  0  0
   -6.4950    3.7500    0.0000 C   0  0  0  0  0  0  0  0  0  0  0  0
   -7.7940    4.5000    0.0000 O   0  0  0  0  0  0  0  0  0  0  0  0
   -5.1960    4.5000    0.0000 C   0  0  0  0  0  0  0  0  0  0  0  0
   -3.8970    3.7500    0.0000 C   0  0  0  0  0  0  0  0  0  0  0  0
   -3.8970    2.2500    0.0000 C   0  0  2  0  0  0  0  0  0  0  0  0
   -2.5980    3.0000    0.0000 C   0  0  0  0  0  0  0  0  0  0  0  0
   -2.5980    3.0000    0.0000 F   0  0  0  0  0  0  0  0  0  0  0  0
   -1.2990    3.7500    0.0000 O   0  0  0  0  0  0  0  0  0  0  0  0
  2  1  1  1  0  0  0
  2  3  1  0  0  0  0
  2  7  1  0  0  0  0
  2 10  1  0  0  0  0
  3  4  1  0  0  0  0
  4  5  1  0  0  0  0
  4 28  1  0  0  0  0
  5  6  1  0  0  0  0
  5 25  1  0  0  0  0
  5 27  1  6  0  0  0
  6  7  1  0  0  0  0
  6 17  1  0  0  0  0
  7  8  1  0  0  0  0
  8  9  1  0  0  0  0
  9 10  1  0  0  0  0
  9 16  1  0  0  0  0
 10 11  1  1  0  0  0
 10 15  1  6  0  0  0
 11 12  2  0  0  0  0
 11 13  1  0  0  0  0
 13 14  1  0  0  0  0
 17 18  1  0  0  0  0
 18 19  1  0  0  0  0
 19 20  2  0  0  0  0
 19 25  1  0  0  0  0
 20 21  1  0  0  0  0
 21 22  2  0  0  0  0
 21 23  1  0  0  0  0
 23 24  2  0  0  0  0
 24 25  1  0  0  0  0
 25 26  1  1  0  0  0
M  END
>  <n>
96

>  <SMILES>
F[C@@]12C(C3C[C@@H](O)[C@](O)(C(=O)CO)[C@]3(C[C@@H]1O)C)CCC1=CC(=O)C=C[C@@]12C

>  <IC50>
235.6

>  <Class>
0

>  <NAME>
AZ150

>  <INCHI_KEY>
GFNANZIMVAIWHM-MGVPRKGPSA-N

>  <Reference>
Mitigating the inhibition of human Bile Salt Export Pump by drugs_ opportunities provided by physicochemical property modulation,  in-silico modeling and structural modification_SI

$$$$
AZ151
  MOE2013           2D

 24 25  0  0  0  0  0  0  0  0999 V2000
    7.7940   -3.0000    0.0000 C   0  0  0  0  0  0  0  0  0  0  0  0
    6.4950   -2.2500    0.0000 C   0  0  0  0  0  0  0  0  0  0  0  0
    5.1960   -3.0000    0.0000 S   0  0  0  0  0  0  0  0  0  0  0  0
    4.2320   -4.1490    0.0000 O   0  0  0  0  0  0  0  0  0  0  0  0
    6.1600   -4.1490    0.0000 O   0  0  0  0  0  0  0  0  0  0  0  0
    3.8970   -2.2500    0.0000 C   0  0  0  0  0  0  0  0  0  0  0  0
    3.8970   -0.7500    0.0000 C   0  0  0  0  0  0  0  0  0  0  0  0
    2.5980    0.0000    0.0000 C   0  0  0  0  0  0  0  0  0  0  0  0
    1.2990   -0.7500    0.0000 C   0  0  0  0  0  0  0  0  0  0  0  0
    1.2990   -2.2500    0.0000 C   0  0  0  0  0  0  0  0  0  0  0  0
    2.5980   -3.0000    0.0000 C   0  0  0  0  0  0  0  0  0  0  0  0
    0.0000   -3.0000    0.0000 F   0  0  0  0  0  0  0  0  0  0  0  0
    0.0000    0.0000    0.0000 C   0  0  0  0  0  0  0  0  0  0  0  0
    0.0000    1.5000    0.0000 C   0  0  0  0  0  0  0  0  0  0  0  0
   -1.2990    2.2500    0.0000 C   0  0  0  0  0  0  0  0  0  0  0  0
   -2.5980    1.5000    0.0000 C   0  0  0  0  0  0  0  0  0  0  0  0
   -2.5980    0.0000    0.0000 C   0  0  0  0  0  0  0  0  0  0  0  0
   -1.2990   -0.7500    0.0000 C   0  0  0  0  0  0  0  0  0  0  0  0
   -1.2990   -2.2500    0.0000 O   0  0  0  0  0  0  0  0  0  0  0  0
   -2.5980   -3.0000    0.0000 C   0  0  0  0  0  0  0  0  0  0  0  0
   -3.8970   -2.2500    0.0000 C   0  0  0  0  0  0  0  0  0  0  0  0
   -5.1960   -3.0000    0.0000 O   0  0  0  0  0  0  0  0  0  0  0  0
   -3.8970   -0.7500    0.0000 O   0  0  0  0  0  0  0  0  0  0  0  0
   -1.2990    3.7500    0.0000 Cl  0  0  0  0  0  0  0  0  0  0  0  0
  1  2  1  0  0  0  0
  2  3  1  0  0  0  0
  3  4  2  0  0  0  0
  3  5  2  0  0  0  0
  3  6  1  0  0  0  0
  6  7  1  0  0  0  0
  6 11  2  0  0  0  0
  7  8  2  0  0  0  0
  8  9  1  0  0  0  0
  9 10  2  0  0  0  0
  9 13  1  0  0  0  0
 10 11  1  0  0  0  0
 10 12  1  0  0  0  0
 13 14  1  0  0  0  0
 13 18  2  0  0  0  0
 14 15  2  0  0  0  0
 15 16  1  0  0  0  0
 15 24  1  0  0  0  0
 16 17  2  0  0  0  0
 17 18  1  0  0  0  0
 18 19  1  0  0  0  0
 19 20  1  0  0  0  0
 20 21  1  0  0  0  0
 21 22  2  0  0  0  0
 21 23  1  0  0  0  0
M  END
>  <n>
97

>  <SMILES>
Clc1cc(-c2ccc(S(=O)(=O)CC)cc2F)c(OCC(O)=O)cc1

>  <IC50>
168.3

>  <Class>
0

>  <NAME>
AZ151

>  <INCHI_KEY>
MNOSYFBXUCZGCA-UHFFFAOYSA-N

>  <Reference>
Mitigating the inhibition of human Bile Salt Export Pump by drugs_ opportunities provided by physicochemical property modulation,  in-silico modeling and structural modification_SI

$$$$
AZ152
  MOE2013           2D

 25 29  0  0  1  0  0  0  0  0999 V2000
    1.3700    0.6100    0.0000 C   0  0  0  0  0  0  0  0  0  0  0  0
    0.0000    0.0000    0.0000 C   0  0  2  0  0  0  0  0  0  0  0  0
    0.0000    1.5000    0.0000 C   0  0  0  0  0  0  0  0  0  0  0  0
   -1.2990    2.2500    0.0000 C   0  0  0  0  0  0  0  0  0  0  0  0
   -2.5980    1.5000    0.0000 C   0  0  3  0  0  0  0  0  0  0  0  0
   -2.5980    0.0000    0.0000 C   0  0  3  0  0  0  0  0  0  0  0  0
   -1.2990   -0.7500    0.0000 C   0  0  3  0  0  0  0  0  0  0  0  0
   -0.9870   -2.2170    0.0000 C   0  0  0  0  0  0  0  0  0  0  0  0
    0.5050   -2.3740    0.0000 C   0  0  0  0  0  0  0  0  0  0  0  0
    1.1150   -1.0040    0.0000 C   0  0  1  0  0  0  0  0  0  0  0  0
    2.4140   -1.7540    0.0000 C   0  0  0  0  0  0  0  0  0  0  0  0
    3.7130   -2.5040    0.0000 C   0  0  0  0  0  0  0  0  0  0  0  0
    1.9960    0.2100    0.0000 O   0  0  0  0  0  0  0  0  0  0  0  0
   -3.8970   -0.7500    0.0000 C   0  0  0  0  0  0  0  0  0  0  0  0
   -5.1960    0.0000    0.0000 C   0  0  0  0  0  0  0  0  0  0  0  0
   -5.1960    1.5000    0.0000 C   0  0  0  0  0  0  0  0  0  0  0  0
   -6.4950    2.2500    0.0000 C   0  0  0  0  0  0  0  0  0  0  0  0
   -6.4950    3.7500    0.0000 C   0  0  0  0  0  0  0  0  0  0  0  0
   -5.1960    4.5000    0.0000 C   0  0  0  0  0  0  0  0  0  0  0  0
   -5.5080    5.9670    0.0000 C   0  0  0  0  0  0  0  0  0  0  0  0
   -7.0000    6.1240    0.0000 N   0  0  0  0  0  0  0  0  0  0  0  0
   -7.6100    4.7540    0.0000 O   0  0  0  0  0  0  0  0  0  0  0  0
   -3.8970    3.7500    0.0000 C   0  0  0  0  0  0  0  0  0  0  0  0
   -3.8970    2.2500    0.0000 C   0  0  2  0  0  0  0  0  0  0  0  0
   -2.5980    3.0000    0.0000 C   0  0  0  0  0  0  0  0  0  0  0  0
  2  1  1  1  0  0  0
  2  3  1  0  0  0  0
  2  7  1  0  0  0  0
  2 10  1  0  0  0  0
  3  4  1  0  0  0  0
  4  5  1  0  0  0  0
  5  6  1  0  0  0  0
  5 24  1  0  0  0  0
  6  7  1  0  0  0  0
  6 14  1  0  0  0  0
  7  8  1  0  0  0  0
  8  9  1  0  0  0  0
  9 10  1  0  0  0  0
 10 11  1  6  0  0  0
 10 13  1  1  0  0  0
 11 12  3  0  0  0  0
 14 15  1  0  0  0  0
 15 16  1  0  0  0  0
 16 17  2  0  0  0  0
 16 24  1  0  0  0  0
 17 18  1  0  0  0  0
 18 19  2  0  0  0  0
 18 22  1  0  0  0  0
 19 20  1  0  0  0  0
 19 23  1  0  0  0  0
 20 21  2  0  0  0  0
 21 22  1  0  0  0  0
 23 24  1  0  0  0  0
 24 25  1  1  0  0  0
M  END
>  <n>
98

>  <SMILES>
o1ncc2C[C@@]3([C@@H]4[C@H]([C@@H]5CC[C@@](O)(C#C)[C@]5(CC4)C)CCC3=Cc12)C

>  <IC50>
<10

>  <Class>
1

>  <NAME>
AZ152

>  <INCHI_KEY>
POZRVZJJTULAOH-LHZXLZLDSA-N

>  <Reference>
Mitigating the inhibition of human Bile Salt Export Pump by drugs_ opportunities provided by physicochemical property modulation,  in-silico modeling and structural modification_SI

$$$$
AZ154
  MOE2013           2D

 30 32  0  0  1  0  0  0  0  0999 V2000
    0.0000    0.0000    0.0000 C   0  0  0  0  0  0  0  0  0  0  0  0
    0.0000    1.5000    0.0000 C   0  0  0  0  0  0  0  0  0  0  0  0
   -1.2990    2.2500    0.0000 C   0  0  0  0  0  0  0  0  0  0  0  0
   -2.5980    1.5000    0.0000 C   0  0  0  0  0  0  0  0  0  0  0  0
   -2.5980    0.0000    0.0000 C   0  0  0  0  0  0  0  0  0  0  0  0
   -1.2990   -0.7500    0.0000 C   0  0  0  0  0  0  0  0  0  0  0  0
   -3.8970    2.2500    0.0000 C   0  0  0  0  0  0  0  0  0  0  0  0
   -3.8970    3.7500    0.0000 O   0  0  0  0  0  0  0  0  0  0  0  0
   -5.1960    1.5000    0.0000 N   0  0  0  0  0  0  0  0  0  0  0  0
   -6.4950    2.2500    0.0000 C   0  0  3  0  0  0  0  0  0  0  0  0
   -6.4950    3.7500    0.0000 C   0  0  0  0  0  0  0  0  0  0  0  0
   -7.7940    4.5000    0.0000 C   0  0  0  0  0  0  0  0  0  0  0  0
   -7.7940    6.0000    0.0000 C   0  0  0  0  0  0  0  0  0  0  0  0
   -9.0930    6.7500    0.0000 C   0  0  0  0  0  0  0  0  0  0  0  0
  -10.3920    6.0000    0.0000 C   0  0  0  0  0  0  0  0  0  0  0  0
  -10.3920    4.5000    0.0000 C   0  0  0  0  0  0  0  0  0  0  0  0
   -9.0930    3.7500    0.0000 C   0  0  0  0  0  0  0  0  0  0  0  0
  -11.6910    6.7500    0.0000 O   0  0  0  0  0  0  0  0  0  0  0  0
   -7.7940    1.5000    0.0000 C   0  0  0  0  0  0  0  0  0  0  0  0
   -7.7940    0.0000    0.0000 O   0  0  0  0  0  0  0  0  0  0  0  0
   -9.0930    2.2500    0.0000 N   0  0  0  0  0  0  0  0  0  0  0  0
  -10.3920    1.5000    0.0000 C   0  0  0  0  0  0  0  0  0  0  0  0
  -11.6910    2.2500    0.0000 C   0  0  0  0  0  0  0  0  0  0  0  0
  -12.9900    1.5000    0.0000 C   0  0  0  0  0  0  0  0  0  0  0  0
  -12.9900    0.0000    0.0000 C   0  0  0  0  0  0  0  0  0  0  0  0
  -11.6910   -0.7500    0.0000 C   0  0  0  0  0  0  0  0  0  0  0  0
  -10.3920    0.0000    0.0000 C   0  0  0  0  0  0  0  0  0  0  0  0
  -14.2890   -0.7500    0.0000 C   0  0  0  0  0  0  0  0  0  0  0  0
  -15.5880    0.0000    0.0000 O   0  0  0  0  0  0  0  0  0  0  0  0
  -14.2890   -2.2500    0.0000 O   0  0  0  0  0  0  0  0  0  0  0  0
  1  2  1  0  0  0  0
  1  6  2  0  0  0  0
  2  3  2  0  0  0  0
  3  4  1  0  0  0  0
  4  5  2  0  0  0  0
  4  7  1  0  0  0  0
  5  6  1  0  0  0  0
  7  8  2  0  0  0  0
  7  9  1  0  0  0  0
  9 10  1  0  0  0  0
 10 11  1  0  0  0  0
 10 19  1  0  0  0  0
 11 12  1  0  0  0  0
 12 13  1  0  0  0  0
 12 17  2  0  0  0  0
 13 14  2  0  0  0  0
 14 15  1  0  0  0  0
 15 16  2  0  0  0  0
 15 18  1  0  0  0  0
 16 17  1  0  0  0  0
 19 20  2  0  0  0  0
 19 21  1  0  0  0  0
 21 22  1  0  0  0  0
 22 23  1  0  0  0  0
 22 27  2  0  0  0  0
 23 24  2  0  0  0  0
 24 25  1  0  0  0  0
 25 26  2  0  0  0  0
 25 28  1  0  0  0  0
 26 27  1  0  0  0  0
 28 29  2  0  0  0  0
 28 30  1  0  0  0  0
M  END
>  <n>
100

>  <SMILES>
Oc1ccc(cc1)C[C@H](NC(=O)c1ccccc1)C(=O)Nc1ccc(cc1)C(O)=O

>  <IC50>
234.8

>  <Class>
0

>  <NAME>
AZ154

>  <INCHI_KEY>
SPPTWHFVYKCNNK-FQEVSTJZSA-N

>  <Reference>
Mitigating the inhibition of human Bile Salt Export Pump by drugs_ opportunities provided by physicochemical property modulation,  in-silico modeling and structural modification_SI

$$$$
AZ155
  MOE2013           2D

 27 30  0  0  1  0  0  0  0  0999 V2000
    1.2990    2.2500    0.0000 C   0  0  0  0  0  0  0  0  0  0  0  0
    2.5980    1.5000    0.0000 C   0  0  0  0  0  0  0  0  0  0  0  0
    2.5980    0.0000    0.0000 C   0  0  0  0  0  0  0  0  0  0  0  0
    1.2990   -0.7500    0.0000 N   0  0  0  0  0  0  0  0  0  0  0  0
    0.0000    0.0000    0.0000 C   0  0  0  0  0  0  0  0  0  0  0  0
    0.0000    1.5000    0.0000 C   0  0  0  0  0  0  0  0  0  0  0  0
   -1.2990    2.2500    0.0000 C   0  0  0  0  0  0  0  0  0  0  0  0
   -2.5980    1.5000    0.0000 C   0  0  0  0  0  0  0  0  0  0  0  0
   -2.5980    0.0000    0.0000 C   0  0  0  0  0  0  0  0  0  0  0  0
   -1.2990   -0.7500    0.0000 C   0  0  0  0  0  0  0  0  0  0  0  0
   -3.8970    2.2500    0.0000 Cl  0  0  0  0  0  0  0  0  0  0  0  0
   -1.2990    3.7500    0.0000 C   0  0  0  0  0  0  0  0  0  0  0  0
    0.0000    4.5000    0.0000 O   0  0  0  0  0  0  0  0  0  0  0  0
   -2.5980    4.5000    0.0000 N   0  0  0  0  0  0  0  0  0  0  0  0
   -2.5980    6.0000    0.0000 C   0  0  0  0  0  0  0  0  0  0  0  0
   -3.8970    6.7500    0.0000 C   0  0  0  0  0  0  0  0  0  0  0  0
   -3.8970    8.2500    0.0000 C   0  0  0  0  0  0  0  0  0  0  0  0
   -5.1960    9.0000    0.0000 C   0  0  0  0  0  0  0  0  0  0  0  0
   -6.4950    8.2500    0.0000 C   0  0  0  0  0  0  0  0  0  0  0  0
   -6.4950    6.7500    0.0000 C   0  0  0  0  0  0  0  0  0  0  0  0
   -5.1960    6.0000    0.0000 C   0  0  0  0  0  0  0  0  0  0  0  0
    3.8970   -0.7500    0.0000 N   0  0  3  0  0  0  0  0  0  0  0  0
    4.0540   -2.2420    0.0000 C   0  0  0  0  0  0  0  0  0  0  0  0
    5.5210   -2.5540    0.0000 C   0  0  0  0  0  0  0  0  0  0  0  0
    6.2710   -1.2550    0.0000 C   0  0  3  0  0  0  0  0  0  0  0  0
    5.2670   -0.1400    0.0000 C   0  0  0  0  0  0  0  0  0  0  0  0
    7.7630   -1.0980    0.0000 N   0  0  0  0  0  0  0  0  0  0  0  0
  1  2  2  0  0  0  0
  1  6  1  0  0  0  0
  2  3  1  0  0  0  0
  3  4  2  0  0  0  0
  3 22  1  0  0  0  0
  4  5  1  0  0  0  0
  5  6  1  0  0  0  0
  5 10  2  0  0  0  0
  6  7  2  0  0  0  0
  7  8  1  0  0  0  0
  7 12  1  0  0  0  0
  8  9  2  0  0  0  0
  8 11  1  0  0  0  0
  9 10  1  0  0  0  0
 12 13  2  0  0  0  0
 12 14  1  0  0  0  0
 14 15  1  0  0  0  0
 15 16  1  0  0  0  0
 16 17  1  0  0  0  0
 16 21  1  0  0  0  0
 17 18  1  0  0  0  0
 18 19  1  0  0  0  0
 19 20  1  0  0  0  0
 20 21  1  0  0  0  0
 22 23  1  0  0  0  0
 22 26  1  0  0  0  0
 23 24  1  0  0  0  0
 24 25  1  0  0  0  0
 25 26  1  0  0  0  0
 25 27  1  0  0  0  0
M  END
>  <n>
101

>  <SMILES>
Clc1ccc2nc(N3C[C@@H](N)CC3)ccc2c1C(=O)NCC1CCCCC1

>  <IC50>
106.9

>  <Class>
0

>  <NAME>
AZ155

>  <INCHI_KEY>
VXAWLBWKTFEBSJ-HNNXBMFYSA-N

>  <Reference>
Mitigating the inhibition of human Bile Salt Export Pump by drugs_ opportunities provided by physicochemical property modulation,  in-silico modeling and structural modification_SI

$$$$
AZ157
  MOE2013           2D

 59 63  0  0  1  0  0  0  0  0999 V2000
    4.3440    1.9410    0.0000 C   0  0  0  0  0  0  0  0  0  0  0  0
    2.8450    1.8740    0.0000 C   0  0  0  0  0  0  0  0  0  0  0  0
    2.0910    0.3700    0.0000 C   0  0  0  0  0  0  0  0  0  0  0  0
    0.0000    0.0000    0.0000 C   0  0  0  0  0  0  0  0  0  0  0  0
    0.0000    1.5000    0.0000 C   0  0  0  0  0  0  0  0  0  0  0  0
   -0.3880    2.9490    0.0000 C   0  0  0  0  0  0  0  0  0  0  0  0
    1.0380    4.8000    0.0000 C   0  0  0  0  0  0  0  0  0  0  0  0
   -0.0410    6.2070    0.0000 O   0  0  0  0  0  0  0  0  0  0  0  0
   -2.1990    5.3090    0.0000 C   0  0  1  0  0  0  0  0  0  0  0  0
   -1.1380    4.2480    0.0000 C   0  0  0  0  0  0  0  0  0  0  0  0
    0.0520    5.1610    0.0000 O   0  0  0  0  0  0  0  0  0  0  0  0
   -3.4980    6.0590    0.0000 O   0  0  0  0  0  0  0  0  0  0  0  0
   -4.9470    6.4470    0.0000 C   0  0  0  0  0  0  0  0  0  0  0  0
   -6.4470    6.4470    0.0000 C   0  0  0  0  0  0  0  0  0  0  0  0
   -7.8960    6.0590    0.0000 C   0  0  3  0  0  0  0  0  0  0  0  0
   -9.1950    5.3090    0.0000 C   0  0  3  0  0  0  0  0  0  0  0  0
  -10.2550    4.2480    0.0000 C   0  0  3  0  0  0  0  0  0  0  0  0
  -11.0050    2.9490    0.0000 C   0  0  3  0  0  0  0  0  0  0  0  0
  -11.3940    1.5000    0.0000 C   0  0  3  0  0  0  0  0  0  0  0  0
  -11.3940    0.0000    0.0000 C   0  0  3  0  0  0  0  0  0  0  0  0
  -11.0050   -1.4490    0.0000 C   0  0  3  0  0  0  0  0  0  0  0  0
  -10.2550   -2.7480    0.0000 C   0  0  3  0  0  0  0  0  0  0  0  0
   -9.1950   -3.8090    0.0000 C   0  0  0  0  0  0  0  0  0  0  0  0
   -7.8960   -4.5590    0.0000 C   0  0  0  0  0  0  0  0  0  0  0  0
   -6.4470   -4.9470    0.0000 C   0  0  0  0  0  0  0  0  0  0  0  0
   -4.9470   -4.9470    0.0000 C   0  0  0  0  0  0  0  0  0  0  0  0
   -3.4980   -4.5590    0.0000 C   0  0  0  0  0  0  0  0  0  0  0  0
   -2.9240   -5.9440    0.0000 O   0  0  0  0  0  0  0  0  0  0  0  0
   -2.1990   -3.8090    0.0000 N   0  0  0  0  0  0  0  0  0  0  0  0
   -1.1380   -2.7480    0.0000 C   0  0  0  0  0  0  0  0  0  0  0  0
   -0.3880   -1.4490    0.0000 C   0  0  0  0  0  0  0  0  0  0  0  0
    0.9980   -2.0230    0.0000 O   0  0  0  0  0  0  0  0  0  0  0  0
    1.8720   -2.3280    0.0000 C   0  0  0  0  0  0  0  0  0  0  0  0
    2.3970   -0.3690    0.0000 C   0  0  0  0  0  0  0  0  0  0  0  0
    3.8200    0.1080    0.0000 O   0  0  0  0  0  0  0  0  0  0  0  0
    2.8660   -3.4520    0.0000 C   0  0  0  0  0  0  0  0  0  0  0  0
    4.3360   -3.1540    0.0000 N   0  0  0  0  0  0  0  0  0  0  0  0
    5.3290   -4.2780    0.0000 N   0  0  0  0  0  0  0  0  0  0  0  0
    4.8520   -5.7000    0.0000 C   0  0  0  0  0  0  0  0  0  0  0  0
    5.8460   -6.8240    0.0000 C   0  0  0  0  0  0  0  0  0  0  0  0
    7.3160   -6.5260    0.0000 N   0  0  0  0  0  0  0  0  0  0  0  0
    7.7920   -5.1030    0.0000 C   0  0  0  0  0  0  0  0  0  0  0  0
    6.7990   -3.9790    0.0000 C   0  0  0  0  0  0  0  0  0  0  0  0
    8.3090   -7.6500    0.0000 C   0  0  0  0  0  0  0  0  0  0  0  0
   -4.7510   -6.4340    0.0000 C   0  0  0  0  0  0  0  0  0  0  0  0
  -11.4450   -3.6610    0.0000 C   0  0  0  0  0  0  0  0  0  0  0  0
  -12.3910   -2.0230    0.0000 O   0  0  0  0  0  0  0  0  0  0  0  0
  -12.8810   -0.1960    0.0000 C   0  0  0  0  0  0  0  0  0  0  0  0
  -12.8810    1.6960    0.0000 O   0  0  0  0  0  0  0  0  0  0  0  0
  -12.3910    3.5230    0.0000 C   0  0  0  0  0  0  0  0  0  0  0  0
  -11.4450    5.1610    0.0000 O   0  0  0  0  0  0  0  0  0  0  0  0
  -12.8310    4.5870    0.0000 C   0  0  0  0  0  0  0  0  0  0  0  0
  -14.0210    5.5000    0.0000 O   0  0  0  0  0  0  0  0  0  0  0  0
  -13.0270    3.1000    0.0000 C   0  0  0  0  0  0  0  0  0  0  0  0
  -10.1080    6.4990    0.0000 C   0  0  0  0  0  0  0  0  0  0  0  0
   -8.4700    7.4440    0.0000 O   0  0  0  0  0  0  0  0  0  0  0  0
   -9.9570    7.6400    0.0000 C   0  0  0  0  0  0  0  0  0  0  0  0
   -2.1020    6.8060    0.0000 C   0  0  0  0  0  0  0  0  0  0  0  0
    2.9880   -0.8320    0.0000 O   0  0  0  0  0  0  0  0  0  0  0  0
  1  2  1  0  0  0  0
  2  3  1  0  0  0  0
  2  7  2  0  0  0  0
  3  4  2  0  0  0  0
  3 59  1  0  0  0  0
  4  5  1  0  0  0  0
  4 31  1  0  0  0  0
  5  6  2  0  0  0  0
  5 34  1  0  0  0  0
  6  7  1  0  0  0  0
  6 10  1  0  0  0  0
  7  8  1  0  0  0  0
  8  9  1  0  0  0  0
  9 10  1  0  0  0  0
  9 12  1  0  0  0  0
  9 58  1  6  0  0  0
 10 11  2  0  0  0  0
 12 13  1  0  0  0  0
 13 14  2  0  0  0  0
 14 15  1  0  0  0  0
 15 16  1  0  0  0  0
 15 56  1  0  0  0  0
 16 17  1  0  0  0  0
 16 55  1  0  0  0  0
 17 18  1  0  0  0  0
 17 51  1  0  0  0  0
 18 19  1  0  0  0  0
 18 50  1  0  0  0  0
 19 20  1  0  0  0  0
 19 49  1  0  0  0  0
 20 21  1  0  0  0  0
 20 48  1  0  0  0  0
 21 22  1  0  0  0  0
 21 47  1  0  0  0  0
 22 23  1  0  0  0  0
 22 46  1  0  0  0  0
 23 24  2  0  0  0  0
 24 25  1  0  0  0  0
 25 26  2  0  0  0  0
 26 27  1  0  0  0  0
 26 45  1  0  0  0  0
 27 28  2  0  0  0  0
 27 29  1  0  0  0  0
 29 30  1  0  0  0  0
 30 31  2  0  0  0  0
 30 33  1  0  0  0  0
 31 32  1  0  0  0  0
 33 34  2  0  0  0  0
 33 36  1  0  0  0  0
 34 35  1  0  0  0  0
 36 37  2  0  0  0  0
 37 38  1  0  0  0  0
 38 39  1  0  0  0  0
 38 43  1  0  0  0  0
 39 40  1  0  0  0  0
 40 41  1  0  0  0  0
 41 42  1  0  0  0  0
 41 44  1  0  0  0  0
 42 43  1  0  0  0  0
 51 52  1  0  0  0  0
 52 53  2  0  0  0  0
 52 54  1  0  0  0  0
 56 57  1  0  0  0  0
M  END
>  <n>
103

>  <SMILES>
O1c2c3c4c(c(O)c2C)c(O)c(NC(=O)/C(=C\C=C\[C@H](C)[C@H](O)[C@@H](C)[C@@H](O)[C@@H](C)[C@H](OC(=O)C)[C@H](C)[C@@H](OC)\C=C\O[C@]1(C)C3=O)/C)c(\C=N\N1CCN(CC1)C)c4O

>  <IC50>
<10

>  <Class>
1

>  <NAME>
AZ157

>  <INCHI_KEY>
JQXXHWHPUNPDRT-WLSIYKJHSA-N

>  <Reference>
Mitigating the inhibition of human Bile Salt Export Pump by drugs_ opportunities provided by physicochemical property modulation,  in-silico modeling and structural modification_SI

$$$$
AZ16
  MOE2013           2D

 39 44  0  0  0  0  0  0  0  0999 V2000
   -2.5980   -4.5000    0.0000 C   0  0  0  0  0  0  0  0  0  0  0  0
   -1.2990   -5.2500    0.0000 C   0  0  0  0  0  0  0  0  0  0  0  0
   -1.2990   -6.7500    0.0000 C   0  0  0  0  0  0  0  0  0  0  0  0
    0.0000   -7.5000    0.0000 C   0  0  0  0  0  0  0  0  0  0  0  0
    1.2990   -6.7500    0.0000 C   0  0  0  0  0  0  0  0  0  0  0  0
    1.2990   -5.2500    0.0000 C   0  0  0  0  0  0  0  0  0  0  0  0
    0.0000   -4.5000    0.0000 C   0  0  0  0  0  0  0  0  0  0  0  0
    0.0000   -3.0000    0.0000 N   0  0  0  0  0  0  0  0  0  0  0  0
    1.2990   -2.2500    0.0000 C   0  0  0  0  0  0  0  0  0  0  0  0
    1.2990   -0.7500    0.0000 N   0  0  0  0  0  0  0  0  0  0  0  0
    0.0000    0.0000    0.0000 C   0  0  0  0  0  0  0  0  0  0  0  0
    0.0000    1.5000    0.0000 C   0  0  0  0  0  0  0  0  0  0  0  0
   -1.2990    2.2500    0.0000 C   0  0  0  0  0  0  0  0  0  0  0  0
   -2.5980    1.5000    0.0000 C   0  0  0  0  0  0  0  0  0  0  0  0
   -2.5980    0.0000    0.0000 C   0  0  0  0  0  0  0  0  0  0  0  0
   -1.2990   -0.7500    0.0000 C   0  0  0  0  0  0  0  0  0  0  0  0
   -1.2990   -2.2500    0.0000 C   0  0  0  0  0  0  0  0  0  0  0  0
   -2.5980   -3.0000    0.0000 O   0  0  0  0  0  0  0  0  0  0  0  0
   -3.8970    2.2500    0.0000 N   0  0  0  0  0  0  0  0  0  0  0  0
   -3.8970    3.7500    0.0000 C   0  0  0  0  0  0  0  0  0  0  0  0
   -5.1960    4.5000    0.0000 C   0  0  0  0  0  0  0  0  0  0  0  0
   -6.4950    3.7500    0.0000 N   0  0  0  0  0  0  0  0  0  0  0  0
   -6.4950    2.2500    0.0000 C   0  0  0  0  0  0  0  0  0  0  0  0
   -5.1960    1.5000    0.0000 C   0  0  0  0  0  0  0  0  0  0  0  0
   -7.7940    4.5000    0.0000 C   0  0  0  0  0  0  0  0  0  0  0  0
    2.5980   -7.5000    0.0000 N   0  0  0  0  0  0  0  0  0  0  0  0
    2.5980   -9.0000    0.0000 C   0  0  0  0  0  0  0  0  0  0  0  0
    1.2990   -9.7500    0.0000 O   0  0  0  0  0  0  0  0  0  0  0  0
    3.8970   -9.7500    0.0000 C   0  0  0  0  0  0  0  0  0  0  0  0
    3.8970  -11.2500    0.0000 C   0  0  0  0  0  0  0  0  0  0  0  0
    5.1960  -12.0000    0.0000 C   0  0  0  0  0  0  0  0  0  0  0  0
    6.4950  -11.2500    0.0000 C   0  0  0  0  0  0  0  0  0  0  0  0
    6.4950   -9.7500    0.0000 C   0  0  0  0  0  0  0  0  0  0  0  0
    5.1960   -9.0000    0.0000 C   0  0  0  0  0  0  0  0  0  0  0  0
    7.7940   -9.0000    0.0000 C   0  0  0  0  0  0  0  0  0  0  0  0
    9.1640   -9.6100    0.0000 C   0  0  0  0  0  0  0  0  0  0  0  0
   10.1680   -8.4950    0.0000 C   0  0  0  0  0  0  0  0  0  0  0  0
    9.4180   -7.1960    0.0000 C   0  0  0  0  0  0  0  0  0  0  0  0
    7.9510   -7.5080    0.0000 O   0  0  0  0  0  0  0  0  0  0  0  0
  1  2  1  0  0  0  0
  2  3  1  0  0  0  0
  2  7  2  0  0  0  0
  3  4  2  0  0  0  0
  4  5  1  0  0  0  0
  5  6  2  0  0  0  0
  5 26  1  0  0  0  0
  6  7  1  0  0  0  0
  7  8  1  0  0  0  0
  8  9  1  0  0  0  0
  8 17  1  0  0  0  0
  9 10  2  0  0  0  0
 10 11  1  0  0  0  0
 11 12  1  0  0  0  0
 11 16  2  0  0  0  0
 12 13  2  0  0  0  0
 13 14  1  0  0  0  0
 14 15  2  0  0  0  0
 14 19  1  0  0  0  0
 15 16  1  0  0  0  0
 16 17  1  0  0  0  0
 17 18  2  0  0  0  0
 19 20  1  0  0  0  0
 19 24  1  0  0  0  0
 20 21  1  0  0  0  0
 21 22  1  0  0  0  0
 22 23  1  0  0  0  0
 22 25  1  0  0  0  0
 23 24  1  0  0  0  0
 26 27  1  0  0  0  0
 27 28  2  0  0  0  0
 27 29  1  0  0  0  0
 29 30  1  0  0  0  0
 29 34  2  0  0  0  0
 30 31  2  0  0  0  0
 31 32  1  0  0  0  0
 32 33  2  0  0  0  0
 33 34  1  0  0  0  0
 33 35  1  0  0  0  0
 35 36  2  0  0  0  0
 35 39  1  0  0  0  0
 36 37  1  0  0  0  0
 37 38  2  0  0  0  0
 38 39  1  0  0  0  0
M  END
>  <n>
106

>  <SMILES>
o1cccc1-c1cc(ccc1)C(=O)Nc1cc(N2C=Nc3c(cc(N4CCN(CC4)C)cc3)C2=O)c(cc1)C

>  <IC50>
<10

>  <Class>
1

>  <NAME>
AZ16

>  <INCHI_KEY>
IVDMCFNZRMBUFA-UHFFFAOYSA-N

>  <Reference>
Mitigating the inhibition of human Bile Salt Export Pump by drugs_ opportunities provided by physicochemical property modulation,  in-silico modeling and structural modification_SI

$$$$
AZ160
  MOE2013           2D

 32 35  0  0  1  0  0  0  0  0999 V2000
    0.5130   -1.4100    0.0000 C   0  0  0  0  0  0  0  0  0  0  0  0
    0.0000    0.0000    0.0000 C   0  0  1  0  0  0  0  0  0  0  0  0
    0.0000    1.5000    0.0000 C   0  0  0  0  0  0  0  0  0  0  0  0
    1.2990    2.2500    0.0000 C   0  0  0  0  0  0  0  0  0  0  0  0
    1.2990    3.7500    0.0000 C   0  0  0  0  0  0  0  0  0  0  0  0
    0.0000    4.5000    0.0000 C   0  0  0  0  0  0  0  0  0  0  0  0
   -1.2990    3.7500    0.0000 C   0  0  0  0  0  0  0  0  0  0  0  0
   -1.2990    2.2500    0.0000 C   0  0  0  0  0  0  0  0  0  0  0  0
   -2.5980    1.5000    0.0000 C   0  0  0  0  0  0  0  0  0  0  0  0
   -3.8970    2.2500    0.0000 O   0  0  0  0  0  0  0  0  0  0  0  0
   -2.5980    0.0000    0.0000 C   0  0  0  0  0  0  0  0  0  0  0  0
   -3.8970   -0.7500    0.0000 C   0  0  0  0  0  0  0  0  0  0  0  0
   -3.8970   -2.2500    0.0000 C   0  0  1  0  0  0  0  0  0  0  0  0
   -2.5980   -3.0000    0.0000 C   0  0  3  0  0  0  0  0  0  0  0  0
   -1.2990   -2.2500    0.0000 C   0  0  0  0  0  0  0  0  0  0  0  0
   -1.2990   -0.7500    0.0000 C   0  0  3  0  0  0  0  0  0  0  0  0
   -2.5980   -4.5000    0.0000 C   0  0  3  0  0  0  0  0  0  0  0  0
   -3.8970   -5.2500    0.0000 C   0  0  0  0  0  0  0  0  0  0  0  0
   -5.1960   -4.5000    0.0000 C   0  0  0  0  0  0  0  0  0  0  0  0
   -5.1960   -3.0000    0.0000 C   0  0  0  0  0  0  0  0  0  0  0  0
   -6.4950   -2.2500    0.0000 O   0  0  0  0  0  0  0  0  0  0  0  0
   -6.4950   -5.2500    0.0000 C   0  0  0  0  0  0  0  0  0  0  0  0
   -6.4950   -6.7500    0.0000 O   0  0  0  0  0  0  0  0  0  0  0  0
   -7.7940   -4.5000    0.0000 N   0  0  0  0  0  0  0  0  0  0  0  0
   -3.8970   -6.7500    0.0000 O   0  0  0  0  0  0  0  0  0  0  0  0
   -1.2990   -5.2500    0.0000 N   0  0  0  0  0  0  0  0  0  0  0  0
   -1.2990   -6.7500    0.0000 C   0  0  0  0  0  0  0  0  0  0  0  0
    0.0000   -4.5000    0.0000 C   0  0  0  0  0  0  0  0  0  0  0  0
   -5.1960   -1.5000    0.0000 O   0  0  0  0  0  0  0  0  0  0  0  0
   -5.1960    0.0000    0.0000 O   0  0  0  0  0  0  0  0  0  0  0  0
   -2.5980    4.5000    0.0000 O   0  0  0  0  0  0  0  0  0  0  0  0
    1.4770    0.2600    0.0000 O   0  0  0  0  0  0  0  0  0  0  0  0
  2  1  1  6  0  0  0
  2  3  1  0  0  0  0
  2 16  1  0  0  0  0
  2 32  1  1  0  0  0
  3  4  1  0  0  0  0
  3  8  2  0  0  0  0
  4  5  2  0  0  0  0
  5  6  1  0  0  0  0
  6  7  2  0  0  0  0
  7  8  1  0  0  0  0
  7 31  1  0  0  0  0
  8  9  1  0  0  0  0
  9 10  2  0  0  0  0
  9 11  1  0  0  0  0
 11 12  2  0  0  0  0
 11 16  1  0  0  0  0
 12 13  1  0  0  0  0
 12 30  1  0  0  0  0
 13 14  1  0  0  0  0
 13 20  1  0  0  0  0
 13 29  1  6  0  0  0
 14 15  1  0  0  0  0
 14 17  1  0  0  0  0
 15 16  1  0  0  0  0
 17 18  1  0  0  0  0
 17 26  1  0  0  0  0
 18 19  2  0  0  0  0
 18 25  1  0  0  0  0
 19 20  1  0  0  0  0
 19 22  1  0  0  0  0
 20 21  2  0  0  0  0
 22 23  2  0  0  0  0
 22 24  1  0  0  0  0
 26 27  1  0  0  0  0
 26 28  1  0  0  0  0
M  END
>  <n>
107

>  <SMILES>
OC=1[C@@H](N(C)C)C2CC3C(=C(O)[C@]2(O)C(=O)C=1C(=O)N)C(=O)c1c(cccc1O)[C@]3(O)C

>  <IC50>
>1000

>  <Class>
0

>  <NAME>
AZ160

>  <INCHI_KEY>
OFVLGDICTFRJMM-DXMYQVORSA-N

>  <Reference>
Mitigating the inhibition of human Bile Salt Export Pump by drugs_ opportunities provided by physicochemical property modulation,  in-silico modeling and structural modification_SI

$$$$
AZ161
  MOE2013           2D

 21 23  0  0  1  0  0  0  0  0999 V2000
    1.2140   -0.8820    0.0000 C   0  0  0  0  0  0  0  0  0  0  0  0
    0.0000    0.0000    0.0000 N   0  0  0  0  0  0  0  0  0  0  0  0
    0.0000    1.5000    0.0000 C   0  0  3  0  0  0  0  0  0  0  0  0
   -1.4270    1.9640    0.0000 C   0  0  0  0  0  0  0  0  0  0  0  0
   -2.3080    0.7500    0.0000 C   0  0  0  0  0  0  0  0  0  0  0  0
   -1.4270   -0.4640    0.0000 C   0  0  3  0  0  0  0  0  0  0  0  0
    0.2510   -1.9550    0.0000 C   0  0  0  0  0  0  0  0  0  0  0  0
    1.9520   -1.4180    0.0000 C   0  0  0  0  0  0  0  0  0  0  0  0
    1.9370    0.3660    0.0000 C   0  0  0  0  0  0  0  0  0  0  0  0
    3.1650   -2.3000    0.0000 O   0  0  0  0  0  0  0  0  0  0  0  0
    4.5350   -1.6890    0.0000 C   0  0  0  0  0  0  0  0  0  0  0  0
    4.6920   -0.1980    0.0000 O   0  0  0  0  0  0  0  0  0  0  0  0
    5.7490   -2.5710    0.0000 C   0  0  3  0  0  0  0  0  0  0  0  0
    7.1190   -1.9610    0.0000 C   0  0  0  0  0  0  0  0  0  0  0  0
    8.3330   -2.8430    0.0000 O   0  0  0  0  0  0  0  0  0  0  0  0
    5.5920   -4.0630    0.0000 C   0  0  0  0  0  0  0  0  0  0  0  0
    4.2220   -4.6730    0.0000 C   0  0  0  0  0  0  0  0  0  0  0  0
    4.0650   -6.1650    0.0000 C   0  0  0  0  0  0  0  0  0  0  0  0
    5.2780   -7.0460    0.0000 C   0  0  0  0  0  0  0  0  0  0  0  0
    6.6490   -6.4360    0.0000 C   0  0  0  0  0  0  0  0  0  0  0  0
    6.8060   -4.9450    0.0000 C   0  0  0  0  0  0  0  0  0  0  0  0
  1  2  1  0  0  0  0
  2  3  1  0  0  0  0
  2  6  1  0  0  0  0
  3  4  1  0  0  0  0
  3  9  1  0  0  0  0
  4  5  1  0  0  0  0
  5  6  1  0  0  0  0
  6  7  1  0  0  0  0
  7  8  1  0  0  0  0
  8  9  1  0  0  0  0
  8 10  1  0  0  0  0
 10 11  1  0  0  0  0
 11 12  2  0  0  0  0
 11 13  1  0  0  0  0
 13 14  1  0  0  0  0
 13 16  1  0  0  0  0
 14 15  1  0  0  0  0
 16 17  1  0  0  0  0
 16 21  2  0  0  0  0
 17 18  2  0  0  0  0
 18 19  1  0  0  0  0
 19 20  2  0  0  0  0
 20 21  1  0  0  0  0
M  END
>  <n>
108

>  <SMILES>
O(C(=O)C(CO)c1ccccc1)C1C[C@@H]2N([C@H](C1)CC2)C

>  <IC50>
>1000

>  <Class>
0

>  <NAME>
AZ161

>  <INCHI_KEY>
RKUNBYITZUJHSG-SPUOUPEWSA-N

>  <Reference>
Mitigating the inhibition of human Bile Salt Export Pump by drugs_ opportunities provided by physicochemical property modulation,  in-silico modeling and structural modification_SI

$$$$
AZ162
  MOE2013           2D

 20 22  0  0  1  0  0  0  0  0999 V2000
    1.2140   -0.8820    0.0000 C   0  0  0  0  0  0  0  0  0  0  0  0
    0.0000    0.0000    0.0000 N   0  0  0  0  0  0  0  0  0  0  0  0
    0.0000    1.5000    0.0000 C   0  0  3  0  0  0  0  0  0  0  0  0
   -1.4270    1.9640    0.0000 C   0  0  0  0  0  0  0  0  0  0  0  0
   -2.3080    0.7500    0.0000 C   0  0  0  0  0  0  0  0  0  0  0  0
   -1.4270   -0.4640    0.0000 C   0  0  3  0  0  0  0  0  0  0  0  0
    0.2510   -1.9550    0.0000 C   0  0  0  0  0  0  0  0  0  0  0  0
    1.9520   -1.4180    0.0000 C   0  0  0  0  0  0  0  0  0  0  0  0
    1.9370    0.3660    0.0000 C   0  0  0  0  0  0  0  0  0  0  0  0
    3.1650   -2.3000    0.0000 O   0  0  0  0  0  0  0  0  0  0  0  0
    4.5350   -1.6890    0.0000 C   0  0  0  0  0  0  0  0  0  0  0  0
    4.6920   -0.1980    0.0000 O   0  0  0  0  0  0  0  0  0  0  0  0
    5.7490   -2.5710    0.0000 C   0  0  3  0  0  0  0  0  0  0  0  0
    7.1190   -1.9610    0.0000 C   0  0  0  0  0  0  0  0  0  0  0  0
    8.3330   -2.8430    0.0000 C   0  0  0  0  0  0  0  0  0  0  0  0
    9.7030   -2.2330    0.0000 C   0  0  0  0  0  0  0  0  0  0  0  0
    9.8600   -0.7410    0.0000 C   0  0  0  0  0  0  0  0  0  0  0  0
    8.6460    0.1410    0.0000 C   0  0  0  0  0  0  0  0  0  0  0  0
    7.2760   -0.4690    0.0000 C   0  0  0  0  0  0  0  0  0  0  0  0
    5.5920   -4.0630    0.0000 O   0  0  0  0  0  0  0  0  0  0  0  0
  1  2  1  0  0  0  0
  2  3  1  0  0  0  0
  2  6  1  0  0  0  0
  3  4  1  0  0  0  0
  3  9  1  0  0  0  0
  4  5  1  0  0  0  0
  5  6  1  0  0  0  0
  6  7  1  0  0  0  0
  7  8  1  0  0  0  0
  8  9  1  0  0  0  0
  8 10  1  0  0  0  0
 10 11  1  0  0  0  0
 11 12  2  0  0  0  0
 11 13  1  0  0  0  0
 13 14  1  0  0  0  0
 13 20  1  0  0  0  0
 14 15  1  0  0  0  0
 14 19  2  0  0  0  0
 15 16  2  0  0  0  0
 16 17  1  0  0  0  0
 17 18  2  0  0  0  0
 18 19  1  0  0  0  0
M  END
>  <n>
109

>  <SMILES>
O(C(=O)C(O)c1ccccc1)C1C[C@@H]2N([C@H](C1)CC2)C

>  <IC50>
>1000

>  <Class>
0

>  <NAME>
AZ162

>  <INCHI_KEY>
ZTVIKZXZYLEVOL-MCOXGKPRSA-N

>  <Reference>
Mitigating the inhibition of human Bile Salt Export Pump by drugs_ opportunities provided by physicochemical property modulation,  in-silico modeling and structural modification_SI

$$$$
AZ163
  MOE2013           2D

 29 32  0  0  0  0  0  0  0  0999 V2000
    5.1960   -3.0000    0.0000 C   0  0  0  0  0  0  0  0  0  0  0  0
    3.8970   -2.2500    0.0000 N   0  0  0  0  0  0  0  0  0  0  0  0
    3.8970   -0.7500    0.0000 C   0  0  0  0  0  0  0  0  0  0  0  0
    2.5980    0.0000    0.0000 C   0  0  0  0  0  0  0  0  0  0  0  0
    1.2990   -0.7500    0.0000 N   0  0  0  0  0  0  0  0  0  0  0  0
    1.2990   -2.2500    0.0000 C   0  0  0  0  0  0  0  0  0  0  0  0
    2.5980   -3.0000    0.0000 C   0  0  0  0  0  0  0  0  0  0  0  0
    0.0000    0.0000    0.0000 C   0  0  0  0  0  0  0  0  0  0  0  0
    0.0000    1.5000    0.0000 C   0  0  0  0  0  0  0  0  0  0  0  0
   -1.2990    2.2500    0.0000 C   0  0  0  0  0  0  0  0  0  0  0  0
   -2.5980    1.5000    0.0000 C   0  0  0  0  0  0  0  0  0  0  0  0
   -2.5980    0.0000    0.0000 C   0  0  0  0  0  0  0  0  0  0  0  0
   -1.2990   -0.7500    0.0000 C   0  0  0  0  0  0  0  0  0  0  0  0
   -1.2990   -2.2500    0.0000 C   0  0  0  0  0  0  0  0  0  0  0  0
   -2.5980   -3.0000    0.0000 C   0  0  0  0  0  0  0  0  0  0  0  0
   -3.8970   -2.2500    0.0000 C   0  0  0  0  0  0  0  0  0  0  0  0
   -3.8970   -0.7500    0.0000 O   0  0  0  0  0  0  0  0  0  0  0  0
   -5.1960   -3.0000    0.0000 N   0  0  0  0  0  0  0  0  0  0  0  0
   -5.1960   -4.5000    0.0000 C   0  0  0  0  0  0  0  0  0  0  0  0
   -3.8970   -5.2500    0.0000 C   0  0  0  0  0  0  0  0  0  0  0  0
   -2.5980   -4.5000    0.0000 S   0  0  0  0  0  0  0  0  0  0  0  0
   -6.4950   -2.2500    0.0000 C   0  0  0  0  0  0  0  0  0  0  0  0
   -6.4950   -0.7500    0.0000 C   0  0  0  0  0  0  0  0  0  0  0  0
   -7.7940    0.0000    0.0000 C   0  0  0  0  0  0  0  0  0  0  0  0
   -9.0930   -0.7500    0.0000 C   0  0  0  0  0  0  0  0  0  0  0  0
   -9.0930   -2.2500    0.0000 C   0  0  0  0  0  0  0  0  0  0  0  0
   -7.7940   -3.0000    0.0000 C   0  0  0  0  0  0  0  0  0  0  0  0
  -10.3920   -3.0000    0.0000 Cl  0  0  0  0  0  0  0  0  0  0  0  0
  -10.3920    0.0000    0.0000 Cl  0  0  0  0  0  0  0  0  0  0  0  0
  1  2  1  0  0  0  0
  2  3  1  0  0  0  0
  2  7  1  0  0  0  0
  3  4  1  0  0  0  0
  4  5  1  0  0  0  0
  5  6  1  0  0  0  0
  5  8  1  0  0  0  0
  6  7  1  0  0  0  0
  8  9  1  0  0  0  0
  8 13  2  0  0  0  0
  9 10  2  0  0  0  0
 10 11  1  0  0  0  0
 11 12  2  0  0  0  0
 12 13  1  0  0  0  0
 13 14  1  0  0  0  0
 14 15  2  0  0  0  0
 15 16  1  0  0  0  0
 15 21  1  0  0  0  0
 16 17  2  0  0  0  0
 16 18  1  0  0  0  0
 18 19  1  0  0  0  0
 18 22  1  0  0  0  0
 19 20  1  0  0  0  0
 20 21  1  0  0  0  0
 22 23  2  0  0  0  0
 22 27  1  0  0  0  0
 23 24  1  0  0  0  0
 24 25  2  0  0  0  0
 25 26  1  0  0  0  0
 25 29  1  0  0  0  0
 26 27  2  0  0  0  0
 26 28  1  0  0  0  0
M  END
>  <n>
110

>  <SMILES>
Clc1cc(N2CCSC(=Cc3ccccc3N3CCN(CC3)C)C2=O)ccc1Cl

>  <IC50>
<10

>  <Class>
1

>  <NAME>
AZ163

>  <INCHI_KEY>
LHYMPSWMHXUWSK-UHFFFAOYSA-N

>  <Reference>
Mitigating the inhibition of human Bile Salt Export Pump by drugs_ opportunities provided by physicochemical property modulation,  in-silico modeling and structural modification_SI

$$$$
AZ164
  MOE2013           2D

 37 40  0  0  1  0  0  0  0  0999 V2000
    0.6580   -6.8950    0.0000 C   0  0  0  0  0  0  0  0  0  0  0  0
    2.0170   -7.5290    0.0000 C   0  0  0  0  0  0  0  0  0  0  0  0
    1.1570   -8.7570    0.0000 C   0  0  0  0  0  0  0  0  0  0  0  0
    3.0780   -8.5890    0.0000 C   0  0  0  0  0  0  0  0  0  0  0  0
    2.6900  -10.0380    0.0000 O   0  0  0  0  0  0  0  0  0  0  0  0
    4.5270   -8.2010    0.0000 O   0  5  0  0  0  0  0  0  0  0  0  0
    2.4060   -6.0800    0.0000 O   0  0  0  0  0  0  0  0  0  0  0  0
    1.3450   -5.0190    0.0000 N   0  0  0  0  0  0  0  0  0  0  0  0
    1.7330   -3.5700    0.0000 C   0  0  0  0  0  0  0  0  0  0  0  0
    0.6720   -2.5100    0.0000 C   0  0  0  0  0  0  0  0  0  0  0  0
   -0.8090   -2.7440    0.0000 C   0  0  0  0  0  0  0  0  0  0  0  0
   -1.4900   -1.4080    0.0000 S   0  0  0  0  0  0  0  0  0  0  0  0
   -0.4290   -0.3470    0.0000 C   0  0  0  0  0  0  0  0  0  0  0  0
    0.9070   -1.0280    0.0000 N   0  0  0  0  0  0  0  0  0  0  0  0
   -0.6640    1.1340    0.0000 N   0  0  0  0  0  0  0  0  0  0  0  0
    3.1820   -3.1820    0.0000 C   0  0  0  0  0  0  0  0  0  0  0  0
    4.2430   -4.2430    0.0000 O   0  0  0  0  0  0  0  0  0  0  0  0
    3.5700   -1.7330    0.0000 N   0  0  0  0  0  0  0  0  0  0  0  0
    5.0190   -1.3450    0.0000 C   0  0  3  0  0  0  0  0  0  0  0  0
    5.7690   -0.0460    0.0000 C   0  0  3  0  0  0  0  0  0  0  0  0
    7.0680   -0.7960    0.0000 N   0  0  0  0  0  0  0  0  0  0  0  0
    6.3180   -2.0950    0.0000 C   0  0  0  0  0  0  0  0  0  0  0  0
    6.7060   -3.5440    0.0000 O   0  0  0  0  0  0  0  0  0  0  0  0
    8.3670   -0.0460    0.0000 C   0  0  0  0  0  0  0  0  0  0  0  0
    8.3670    1.4540    0.0000 C   0  0  0  0  0  0  0  0  0  0  0  0
    7.0680    2.2040    0.0000 C   0  0  0  0  0  0  0  0  0  0  0  0
    5.7690    1.4540    0.0000 S   0  0  0  0  0  0  0  0  0  0  0  0
    9.6660    2.2040    0.0000 C   0  0  0  0  0  0  0  0  0  0  0  0
    9.6660    3.7040    0.0000 N   0  3  0  0  0  0  0  0  0  0  0  0
    8.3670    4.4540    0.0000 C   0  0  0  0  0  0  0  0  0  0  0  0
    8.3670    5.9540    0.0000 C   0  0  0  0  0  0  0  0  0  0  0  0
    9.6660    6.7040    0.0000 C   0  0  0  0  0  0  0  0  0  0  0  0
   10.9650    5.9540    0.0000 C   0  0  0  0  0  0  0  0  0  0  0  0
   10.9650    4.4540    0.0000 C   0  0  0  0  0  0  0  0  0  0  0  0
    9.6660   -0.7960    0.0000 C   0  0  0  0  0  0  0  0  0  0  0  0
   10.9650   -0.0460    0.0000 O   0  0  0  0  0  0  0  0  0  0  0  0
    9.6660   -2.2960    0.0000 O   0  0  0  0  0  0  0  0  0  0  0  0
  1  2  1  0  0  0  0
  2  3  1  0  0  0  0
  2  4  1  0  0  0  0
  2  7  1  0  0  0  0
  4  5  2  0  0  0  0
  4  6  1  0  0  0  0
  7  8  1  0  0  0  0
  8  9  2  0  0  0  0
  9 10  1  0  0  0  0
  9 16  1  0  0  0  0
 10 11  2  0  0  0  0
 10 14  1  0  0  0  0
 11 12  1  0  0  0  0
 12 13  1  0  0  0  0
 13 14  2  0  0  0  0
 13 15  1  0  0  0  0
 16 17  2  0  0  0  0
 16 18  1  0  0  0  0
 18 19  1  0  0  0  0
 19 20  1  0  0  0  0
 19 22  1  0  0  0  0
 20 21  1  0  0  0  0
 20 27  1  0  0  0  0
 21 22  1  0  0  0  0
 21 24  1  0  0  0  0
 22 23  2  0  0  0  0
 24 25  2  0  0  0  0
 24 35  1  0  0  0  0
 25 26  1  0  0  0  0
 25 28  1  0  0  0  0
 26 27  1  0  0  0  0
 28 29  1  0  0  0  0
 29 30  1  0  0  0  0
 29 34  2  0  0  0  0
 30 31  2  0  0  0  0
 31 32  1  0  0  0  0
 32 33  2  0  0  0  0
 33 34  1  0  0  0  0
 35 36  2  0  0  0  0
 35 37  1  0  0  0  0
M  CHG  1   6  -1
M  CHG  1  29   1
M  END
>  <n>
111

>  <SMILES>
s1cc(nc1N)/C(=N/OC(C(O)=O)(C)C)/C(=O)N[C@H]1[C@H]2SCC(C[n+]3ccccc3)=C(N2C1=O)C(O)=O

>  <IC50>
>1000

>  <Class>
0

>  <NAME>
AZ164

>  <INCHI_KEY>
ORFOPKXBNMVMKC-DWVKKRMSSA-O

>  <Reference>
Mitigating the inhibition of human Bile Salt Export Pump by drugs_ opportunities provided by physicochemical property modulation,  in-silico modeling and structural modification_SI

$$$$
AZ165
  MOE2013           2D

 48 49  0  0  1  0  0  0  0  0999 V2000
    1.5780   -5.0120    0.0000 C   0  0  0  0  0  0  0  0  0  0  0  0
    2.7060   -6.0020    0.0000 C   0  0  3  0  0  0  0  0  0  0  0  0
    4.1270   -6.4840    0.0000 C   0  0  0  0  0  0  0  0  0  0  0  0
    3.9310   -7.9710    0.0000 O   0  0  0  0  0  0  0  0  0  0  0  0
    5.6230   -6.3860    0.0000 N   0  0  0  0  0  0  0  0  0  0  0  0
    6.9690   -5.7220    0.0000 C   0  0  3  0  0  0  0  0  0  0  0  0
    7.9580   -4.5940    0.0000 C   0  0  0  0  0  0  0  0  0  0  0  0
    9.2570   -5.3440    0.0000 O   0  0  0  0  0  0  0  0  0  0  0  0
    8.4400   -3.1740    0.0000 N   0  0  0  0  0  0  0  0  0  0  0  0
    8.3420   -1.6770    0.0000 C   0  0  3  0  0  0  0  0  0  0  0  0
    7.6780   -0.3320    0.0000 C   0  0  0  0  0  0  0  0  0  0  0  0
    8.8680    0.5810    0.0000 O   0  0  0  0  0  0  0  0  0  0  0  0
    6.5500    0.6570    0.0000 N   0  0  0  0  0  0  0  0  0  0  0  0
    5.1300    1.1390    0.0000 C   0  0  0  0  0  0  0  0  0  0  0  0
    5.3260    2.6260    0.0000 C   0  0  0  0  0  0  0  0  0  0  0  0
    4.1360    3.5400    0.0000 N   0  0  0  0  0  0  0  0  0  0  0  0
    4.3320    5.0270    0.0000 C   0  0  0  0  0  0  0  0  0  0  0  0
    3.1420    5.9400    0.0000 O   0  0  0  0  0  0  0  0  0  0  0  0
    5.7180    5.6010    0.0000 N   0  0  0  0  0  0  0  0  0  0  0  0
    3.6330    1.0410    0.0000 C   0  0  0  0  0  0  0  0  0  0  0  0
    3.2450    2.4900    0.0000 O   0  0  0  0  0  0  0  0  0  0  0  0
    2.2880    0.3780    0.0000 N   0  0  0  0  0  0  0  0  0  0  0  0
    1.2990   -0.7500    0.0000 C   0  0  3  0  0  0  0  0  0  0  0  0
    0.8170   -2.1700    0.0000 C   0  0  0  0  0  0  0  0  0  0  0  0
   -0.6700   -1.9750    0.0000 O   0  0  0  0  0  0  0  0  0  0  0  0
    0.9150   -3.6670    0.0000 N   0  0  0  0  0  0  0  0  0  0  0  0
    0.0000    0.0000    0.0000 C   0  0  3  0  0  0  0  0  0  0  0  0
    0.0000    1.5000    0.0000 C   0  0  0  0  0  0  0  0  0  0  0  0
   -1.2990    2.2500    0.0000 C   0  0  3  0  0  0  0  0  0  0  0  0
   -2.5980    1.5000    0.0000 N   0  0  0  0  0  0  0  0  0  0  0  0
   -2.5980    0.0000    0.0000 C   0  0  0  0  0  0  0  0  0  0  0  0
   -3.8970   -0.7500    0.0000 N   0  0  0  0  0  0  0  0  0  0  0  0
   -1.2990   -0.7500    0.0000 N   0  0  0  0  0  0  0  0  0  0  0  0
   -1.2990    3.7500    0.0000 O   0  0  0  0  0  0  0  0  0  0  0  0
    9.7910   -1.2890    0.0000 C   0  0  0  0  0  0  0  0  0  0  0  0
   10.8510   -2.3500    0.0000 O   0  0  0  0  0  0  0  0  0  0  0  0
    7.8820   -6.9120    0.0000 C   0  0  0  0  0  0  0  0  0  0  0  0
    7.3080   -8.2980    0.0000 O   0  0  0  0  0  0  0  0  0  0  0  0
    1.9560   -7.3000    0.0000 N   0  0  0  0  0  0  0  0  0  0  0  0
    2.7060   -8.6000    0.0000 C   0  0  0  0  0  0  0  0  0  0  0  0
    4.2060   -8.6000    0.0000 O   0  0  0  0  0  0  0  0  0  0  0  0
    1.9560   -9.8990    0.0000 C   0  0  0  0  0  0  0  0  0  0  0  0
    2.7060  -11.1980    0.0000 C   0  0  3  0  0  0  0  0  0  0  0  0
    1.9560  -12.4970    0.0000 C   0  0  0  0  0  0  0  0  0  0  0  0
    2.7060  -13.7960    0.0000 C   0  0  0  0  0  0  0  0  0  0  0  0
    1.9560  -15.0950    0.0000 C   0  0  0  0  0  0  0  0  0  0  0  0
    2.7060  -16.3940    0.0000 N   0  0  0  0  0  0  0  0  0  0  0  0
    4.2060  -11.1980    0.0000 N   0  0  0  0  0  0  0  0  0  0  0  0
  1  2  1  0  0  0  0
  1 26  1  0  0  0  0
  2  3  1  0  0  0  0
  2 39  1  0  0  0  0
  3  4  2  0  0  0  0
  3  5  1  0  0  0  0
  5  6  1  0  0  0  0
  6  7  1  0  0  0  0
  6 37  1  0  0  0  0
  7  8  2  0  0  0  0
  7  9  1  0  0  0  0
  9 10  1  0  0  0  0
 10 11  1  0  0  0  0
 10 35  1  0  0  0  0
 11 12  2  0  0  0  0
 11 13  1  0  0  0  0
 13 14  1  0  0  0  0
 14 15  2  0  0  0  0
 14 20  1  0  0  0  0
 15 16  1  0  0  0  0
 16 17  1  0  0  0  0
 17 18  2  0  0  0  0
 17 19  1  0  0  0  0
 20 21  2  0  0  0  0
 20 22  1  0  0  0  0
 22 23  1  0  0  0  0
 23 24  1  0  0  0  0
 23 27  1  0  0  0  0
 24 25  2  0  0  0  0
 24 26  1  0  0  0  0
 27 28  1  0  0  0  0
 27 33  1  0  0  0  0
 28 29  1  0  0  0  0
 29 30  1  0  0  0  0
 29 34  1  0  0  0  0
 30 31  1  0  0  0  0
 31 32  2  0  0  0  0
 31 33  1  0  0  0  0
 35 36  1  0  0  0  0
 37 38  1  0  0  0  0
 39 40  1  0  0  0  0
 40 41  2  0  0  0  0
 40 42  1  0  0  0  0
 42 43  1  0  0  0  0
 43 44  1  0  0  0  0
 43 48  1  0  0  0  0
 44 45  1  0  0  0  0
 45 46  1  0  0  0  0
 46 47  1  0  0  0  0
M  END
>  <n>
112

>  <SMILES>
OC1NC(NC(C1)[C@@H]1NC(=O)/C(/NC(=O)[C@@H](NC(=O)[C@@H](NC(=O)[C@@H](NC(=O)CC(N)CCCN)CNC1=O)CO)CO)=C\NC(=O)N)=N

>  <IC50>
>1000

>  <Class>
0

>  <NAME>
AZ165

>  <INCHI_KEY>
GXFAIFRPOKBQRV-FXDSHJAVSA-N

>  <Reference>
Mitigating the inhibition of human Bile Salt Export Pump by drugs_ opportunities provided by physicochemical property modulation,  in-silico modeling and structural modification_SI

$$$$
AZ167
  MOE2013           2D

 40 42  0  0  1  0  0  0  0  0999 V2000
    1.2140   -0.8820    0.0000 C   0  0  0  0  0  0  0  0  0  0  0  0
    0.0000    0.0000    0.0000 C   0  0  3  0  0  0  0  0  0  0  0  0
    0.0000    1.5000    0.0000 C   0  0  1  0  0  0  0  0  0  0  0  0
   -1.4270    1.9640    0.0000 C   0  0  3  0  0  0  0  0  0  0  0  0
   -2.3080    0.7500    0.0000 C   0  0  3  0  0  0  0  0  0  0  0  0
   -1.4270   -0.4640    0.0000 O   0  0  0  0  0  0  0  0  0  0  0  0
   -3.8080    0.7500    0.0000 O   0  0  0  0  0  0  0  0  0  0  0  0
   -4.5580   -0.5490    0.0000 C   0  0  3  0  0  0  0  0  0  0  0  0
   -6.0580   -0.5490    0.0000 C   0  0  3  0  0  0  0  0  0  0  0  0
   -6.8080   -1.8480    0.0000 C   0  0  3  0  0  0  0  0  0  0  0  0
   -6.0580   -3.1470    0.0000 C   0  0  3  0  0  0  0  0  0  0  0  0
   -4.5580   -3.1470    0.0000 C   0  0  3  0  0  0  0  0  0  0  0  0
   -3.8080   -1.8480    0.0000 C   0  0  3  0  0  0  0  0  0  0  0  0
   -2.3080   -1.8480    0.0000 O   0  0  0  0  0  0  0  0  0  0  0  0
   -3.8080   -4.4460    0.0000 O   0  0  0  0  0  0  0  0  0  0  0  0
   -6.8080   -4.4460    0.0000 N   0  0  0  0  0  0  0  0  0  0  0  0
   -8.3080   -4.4460    0.0000 C   0  0  0  0  0  0  0  0  0  0  0  0
   -9.0580   -5.7450    0.0000 N   0  0  0  0  0  0  0  0  0  0  0  0
   -9.0580   -3.1470    0.0000 N   0  0  0  0  0  0  0  0  0  0  0  0
   -8.3080   -1.8480    0.0000 O   0  0  0  0  0  0  0  0  0  0  0  0
   -6.8080    0.7500    0.0000 N   0  0  0  0  0  0  0  0  0  0  0  0
   -8.3080    0.7500    0.0000 C   0  0  0  0  0  0  0  0  0  0  0  0
   -9.0580    2.0490    0.0000 N   0  0  0  0  0  0  0  0  0  0  0  0
   -9.0580   -0.5490    0.0000 N   0  0  0  0  0  0  0  0  0  0  0  0
   -1.8900    3.3900    0.0000 O   0  0  0  0  0  0  0  0  0  0  0  0
   -0.8860    4.5050    0.0000 C   0  0  3  0  0  0  0  0  0  0  0  0
    0.5810    4.1930    0.0000 C   0  0  3  0  0  0  0  0  0  0  0  0
    1.5840    5.3080    0.0000 C   0  0  3  0  0  0  0  0  0  0  0  0
    1.1210    6.7340    0.0000 C   0  0  3  0  0  0  0  0  0  0  0  0
   -0.3460    7.0460    0.0000 C   0  0  3  0  0  0  0  0  0  0  0  0
   -1.3500    5.9310    0.0000 O   0  0  0  0  0  0  0  0  0  0  0  0
   -0.8100    8.4730    0.0000 C   0  0  0  0  0  0  0  0  0  0  0  0
    0.1940    9.5870    0.0000 O   0  0  0  0  0  0  0  0  0  0  0  0
    2.1250    7.8490    0.0000 O   0  0  0  0  0  0  0  0  0  0  0  0
    3.0520    4.9960    0.0000 O   0  0  0  0  0  0  0  0  0  0  0  0
    1.0440    2.7660    0.0000 N   0  0  0  0  0  0  0  0  0  0  0  0
    2.5120    2.4540    0.0000 C   0  0  0  0  0  0  0  0  0  0  0  0
    1.4920    1.3430    0.0000 C   0  0  0  0  0  0  0  0  0  0  0  0
    2.3740    2.5570    0.0000 O   0  0  0  0  0  0  0  0  0  0  0  0
    0.3120    2.9670    0.0000 O   0  0  0  0  0  0  0  0  0  0  0  0
  1  2  1  0  0  0  0
  2  3  1  0  0  0  0
  2  6  1  0  0  0  0
  3  4  1  0  0  0  0
  3 38  1  1  0  0  0
  3 40  1  6  0  0  0
  4  5  1  0  0  0  0
  4 25  1  0  0  0  0
  5  6  1  0  0  0  0
  5  7  1  0  0  0  0
  7  8  1  0  0  0  0
  8  9  1  0  0  0  0
  8 13  1  0  0  0  0
  9 10  1  0  0  0  0
  9 21  1  0  0  0  0
 10 11  1  0  0  0  0
 10 20  1  0  0  0  0
 11 12  1  0  0  0  0
 11 16  1  0  0  0  0
 12 13  1  0  0  0  0
 12 15  1  0  0  0  0
 13 14  1  0  0  0  0
 16 17  1  0  0  0  0
 17 18  2  0  0  0  0
 17 19  1  0  0  0  0
 21 22  1  0  0  0  0
 22 23  2  0  0  0  0
 22 24  1  0  0  0  0
 25 26  1  0  0  0  0
 26 27  1  0  0  0  0
 26 31  1  0  0  0  0
 27 28  1  0  0  0  0
 27 36  1  0  0  0  0
 28 29  1  0  0  0  0
 28 35  1  0  0  0  0
 29 30  1  0  0  0  0
 29 34  1  0  0  0  0
 30 31  1  0  0  0  0
 30 32  1  0  0  0  0
 32 33  1  0  0  0  0
 36 37  1  0  0  0  0
 38 39  2  0  0  0  0
M  END
>  <n>
114

>  <SMILES>
O1C(C)[C@](O)(C=O)[C@@H](OC2O[C@H](CO)[C@@H](O)[C@H](O)[C@H]2NC)C1OC1C(NC(N)=N)C(O)C(NC(N)=N)C(O)C1O

>  <IC50>
>1000

>  <Class>
0

>  <NAME>
AZ167

>  <INCHI_KEY>
UCSJYZPVAKXKNQ-WPFINQCMSA-N

>  <Reference>
Mitigating the inhibition of human Bile Salt Export Pump by drugs_ opportunities provided by physicochemical property modulation,  in-silico modeling and structural modification_SI

$$$$
AZ168
  MOE2013           2D

 10 11  0  0  1  0  0  0  0  0999 V2000
    2.2500   -3.8970    0.0000 C   0  0  0  0  0  0  0  0  0  0  0  0
    3.0000   -2.5980    0.0000 C   0  0  0  0  0  0  0  0  0  0  0  0
    2.2500   -1.2990    0.0000 C   0  0  0  0  0  0  0  0  0  0  0  0
    0.7500   -1.2990    0.0000 C   0  0  0  0  0  0  0  0  0  0  0  0
    0.0000   -2.5980    0.0000 C   0  0  0  0  0  0  0  0  0  0  0  0
    0.7500   -3.8970    0.0000 C   0  0  0  0  0  0  0  0  0  0  0  0
    0.0000    0.0000    0.0000 C   0  0  3  0  0  0  0  0  0  0  0  0
    0.0000    1.5000    0.0000 C   0  0  0  0  0  0  0  0  0  0  0  0
   -1.2990    0.7500    0.0000 C   0  0  3  0  0  0  0  0  0  0  0  0
   -2.7990    0.7500    0.0000 N   0  0  0  0  0  0  0  0  0  0  0  0
  1  2  1  0  0  0  0
  1  6  2  0  0  0  0
  2  3  2  0  0  0  0
  3  4  1  0  0  0  0
  4  5  2  0  0  0  0
  4  7  1  0  0  0  0
  5  6  1  0  0  0  0
  7  8  1  0  0  0  0
  7  9  1  0  0  0  0
  8  9  1  0  0  0  0
  9 10  1  0  0  0  0
M  END
>  <n>
115

>  <SMILES>
N[C@@H]1C[C@H]1c1ccccc1

>  <IC50>
>1000

>  <Class>
0

>  <NAME>
AZ168

>  <INCHI_KEY>
AELCINSCMGFISI-DTWKUNHWSA-N

>  <Reference>
Mitigating the inhibition of human Bile Salt Export Pump by drugs_ opportunities provided by physicochemical property modulation,  in-silico modeling and structural modification_SI

$$$$
AZ169
  MOE2013           2D

 12 13  0  0  1  0  0  0  0  0999 V2000
    0.3120   -1.4670    0.0000 C   0  0  0  0  0  0  0  0  0  0  0  0
    0.0000    0.0000    0.0000 C   0  0  1  0  0  0  0  0  0  0  0  0
    0.0000    1.5000    0.0000 C   0  0  3  0  0  0  0  0  0  0  0  0
   -1.0120    3.7290    0.0000 C   0  0  0  0  0  0  0  0  0  0  0  0
   -2.8000    3.1490    0.0000 C   0  0  0  0  0  0  0  0  0  0  0  0
   -2.3080    0.7500    0.0000 C   0  0  3  0  0  0  0  0  0  0  0  0
   -1.4270    1.9640    0.0000 C   0  0  0  0  0  0  0  0  0  0  0  0
   -1.4270   -0.4640    0.0000 C   0  0  0  0  0  0  0  0  0  0  0  0
   -2.7260   -1.2140    0.0000 C   0  0  0  0  0  0  0  0  0  0  0  0
   -0.8160   -1.8340    0.0000 C   0  0  0  0  0  0  0  0  0  0  0  0
    1.4920    0.1570    0.0000 N   0  0  0  0  0  0  0  0  0  0  0  0
    2.3740   -1.0570    0.0000 C   0  0  0  0  0  0  0  0  0  0  0  0
  2  1  1  6  0  0  0
  2  3  1  0  0  0  0
  2  8  1  0  0  0  0
  2 11  1  1  0  0  0
  3  4  1  0  0  0  0
  3  7  1  0  0  0  0
  4  5  1  0  0  0  0
  5  6  1  0  0  0  0
  6  7  1  0  0  0  0
  6  8  1  0  0  0  0
  8  9  1  0  0  0  0
  8 10  1  0  0  0  0
 11 12  1  0  0  0  0
M  END
>  <n>
116

>  <SMILES>
N(C)[C@@]1([C@H]2CC[C@H](C2)C1(C)C)C

>  <IC50>
>1000

>  <Class>
0

>  <NAME>
AZ169

>  <INCHI_KEY>
IMYZQPCYWPFTAG-WCABBAIRSA-N

>  <Reference>
Mitigating the inhibition of human Bile Salt Export Pump by drugs_ opportunities provided by physicochemical property modulation,  in-silico modeling and structural modification_SI

$$$$
AZ17
  MOE2013           2D

 22 25  0  0  1  0  0  0  0  0999 V2000
    9.5890    6.8920    0.0000 C   0  0  0  0  0  0  0  0  0  0  0  0
    8.1660    7.3660    0.0000 C   0  0  0  0  0  0  0  0  0  0  0  0
    7.0430    6.3710    0.0000 C   0  0  3  0  0  0  0  0  0  0  0  0
    7.0430    4.1290    0.0000 C   0  0  0  0  0  0  0  0  0  0  0  0
    3.8970    3.7500    0.0000 N   0  0  3  0  0  0  0  0  0  0  0  0
    5.1960    4.5000    0.0000 C   0  0  0  0  0  0  0  0  0  0  0  0
    5.1960    6.0000    0.0000 C   0  0  0  0  0  0  0  0  0  0  0  0
    3.8970    6.7500    0.0000 C   0  0  3  0  0  0  0  0  0  0  0  0
    2.5980    6.0000    0.0000 C   0  0  0  0  0  0  0  0  0  0  0  0
    2.5980    4.5000    0.0000 C   0  0  3  0  0  0  0  0  0  0  0  0
    1.2990    3.7500    0.0000 C   0  0  3  0  0  0  0  0  0  0  0  0
    1.2990    2.2500    0.0000 C   0  0  0  0  0  0  0  0  0  0  0  0
    2.5980    1.5000    0.0000 C   0  0  0  0  0  0  0  0  0  0  0  0
    2.5980    0.0000    0.0000 C   0  0  0  0  0  0  0  0  0  0  0  0
    1.2990   -0.7500    0.0000 N   0  0  0  0  0  0  0  0  0  0  0  0
    0.0000    0.0000    0.0000 C   0  0  0  0  0  0  0  0  0  0  0  0
    0.0000    1.5000    0.0000 C   0  0  0  0  0  0  0  0  0  0  0  0
   -1.2990    2.2500    0.0000 C   0  0  0  0  0  0  0  0  0  0  0  0
   -2.5980    1.5000    0.0000 C   0  0  0  0  0  0  0  0  0  0  0  0
   -2.5980    0.0000    0.0000 C   0  0  0  0  0  0  0  0  0  0  0  0
   -1.2990   -0.7500    0.0000 C   0  0  0  0  0  0  0  0  0  0  0  0
    0.0000    4.5000    0.0000 O   0  0  0  0  0  0  0  0  0  0  0  0
  1  2  2  0  0  0  0
  2  3  1  0  0  0  0
  3  4  1  0  0  0  0
  3  8  1  0  0  0  0
  4  5  1  0  0  0  0
  5  6  1  0  0  0  0
  5 10  1  0  0  0  0
  6  7  1  0  0  0  0
  7  8  1  0  0  0  0
  8  9  1  0  0  0  0
  9 10  1  0  0  0  0
 10 11  1  0  0  0  0
 11 12  1  0  0  0  0
 11 22  1  0  0  0  0
 12 13  2  0  0  0  0
 12 17  1  0  0  0  0
 13 14  1  0  0  0  0
 14 15  2  0  0  0  0
 15 16  1  0  0  0  0
 16 17  1  0  0  0  0
 16 21  2  0  0  0  0
 17 18  2  0  0  0  0
 18 19  1  0  0  0  0
 19 20  2  0  0  0  0
 20 21  1  0  0  0  0
M  END
>  <n>
117

>  <SMILES>
OC(C1N2CC(C(C1)CC2)C=C)c1c2c(ncc1)cccc2

>  <IC50>
>1000

>  <Class>
0

>  <NAME>
AZ17

>  <INCHI_KEY>
KMPWYEUPVWOPIM-UHFFFAOYSA-N

>  <Reference>
Mitigating the inhibition of human Bile Salt Export Pump by drugs_ opportunities provided by physicochemical property modulation,  in-silico modeling and structural modification_SI

$$$$
AZ170
  MOE2013           2D

 26 30  0  0  1  0  0  0  0  0999 V2000
    2.5980   -7.5000    0.0000 C   0  0  0  0  0  0  0  0  0  0  0  0
    1.2990   -6.7500    0.0000 O   0  0  0  0  0  0  0  0  0  0  0  0
    1.2990   -5.2500    0.0000 C   0  0  0  0  0  0  0  0  0  0  0  0
    0.0000   -4.5000    0.0000 O   0  0  0  0  0  0  0  0  0  0  0  0
    2.5980   -4.5000    0.0000 C   0  0  3  0  0  0  0  0  0  0  0  0
    3.8970   -5.2500    0.0000 C   0  0  3  0  0  0  0  0  0  0  0  0
    5.1960   -4.5000    0.0000 C   0  0  0  0  0  0  0  0  0  0  0  0
    5.1960   -3.0000    0.0000 C   0  0  0  0  0  0  0  0  0  0  0  0
    3.8970   -2.2500    0.0000 C   0  0  3  0  0  0  0  0  0  0  0  0
    2.5980   -3.0000    0.0000 C   0  0  3  0  0  0  0  0  0  0  0  0
    1.2990   -2.2500    0.0000 C   0  0  0  0  0  0  0  0  0  0  0  0
    1.2990   -0.7500    0.0000 C   0  0  3  0  0  0  0  0  0  0  0  0
    0.0000    0.0000    0.0000 C   0  0  0  0  0  0  0  0  0  0  0  0
    0.0000    1.5000    0.0000 C   0  0  0  0  0  0  0  0  0  0  0  0
   -1.4270    1.9640    0.0000 C   0  0  0  0  0  0  0  0  0  0  0  0
   -2.0370    3.3340    0.0000 C   0  0  0  0  0  0  0  0  0  0  0  0
   -3.5280    3.4910    0.0000 C   0  0  0  0  0  0  0  0  0  0  0  0
   -4.4100    2.2770    0.0000 C   0  0  0  0  0  0  0  0  0  0  0  0
   -3.8000    0.9070    0.0000 C   0  0  0  0  0  0  0  0  0  0  0  0
   -2.3080    0.7500    0.0000 C   0  0  0  0  0  0  0  0  0  0  0  0
   -1.4270   -0.4640    0.0000 N   0  0  0  0  0  0  0  0  0  0  0  0
    1.2990    2.2500    0.0000 C   0  0  0  0  0  0  0  0  0  0  0  0
    2.5980    1.5000    0.0000 C   0  0  0  0  0  0  0  0  0  0  0  0
    2.5980    0.0000    0.0000 N   0  0  3  0  0  0  0  0  0  0  0  0
    3.8970   -0.7500    0.0000 C   0  0  0  0  0  0  0  0  0  0  0  0
    3.8970   -6.7500    0.0000 O   0  0  0  0  0  0  0  0  0  0  0  0
  1  2  1  0  0  0  0
  2  3  1  0  0  0  0
  3  4  2  0  0  0  0
  3  5  1  0  0  0  0
  5  6  1  0  0  0  0
  5 10  1  0  0  0  0
  6  7  1  0  0  0  0
  6 26  1  0  0  0  0
  7  8  1  0  0  0  0
  8  9  1  0  0  0  0
  9 10  1  0  0  0  0
  9 25  1  0  0  0  0
 10 11  1  0  0  0  0
 11 12  1  0  0  0  0
 12 13  1  0  0  0  0
 12 24  1  0  0  0  0
 13 14  2  0  0  0  0
 13 21  1  0  0  0  0
 14 15  1  0  0  0  0
 14 22  1  0  0  0  0
 15 16  1  0  0  0  0
 15 20  2  0  0  0  0
 16 17  2  0  0  0  0
 17 18  1  0  0  0  0
 18 19  2  0  0  0  0
 19 20  1  0  0  0  0
 20 21  1  0  0  0  0
 22 23  1  0  0  0  0
 23 24  1  0  0  0  0
 24 25  1  0  0  0  0
M  END
>  <n>
118

>  <SMILES>
O[C@H]1CC[C@@H]2[C@H](C[C@@H]3N(CCc4c5c([nH]c34)cccc5)C2)[C@H]1C(OC)=O

>  <IC50>
254

>  <Class>
0

>  <NAME>
AZ170

>  <INCHI_KEY>
BLGXFZZNTVWLAY-SCYLSFHTSA-N

>  <Reference>
Mitigating the inhibition of human Bile Salt Export Pump by drugs_ opportunities provided by physicochemical property modulation,  in-silico modeling and structural modification_SI

$$$$
AZ173
  MOE2013           2D

 26 30  0  0  1  0  0  0  0  0999 V2000
    0.3120   -1.4670    0.0000 C   0  0  0  0  0  0  0  0  0  0  0  0
    0.0000    0.0000    0.0000 N   0  3  0  0  0  0  0  0  0  0  0  0
    0.0000    1.5000    0.0000 C   0  0  3  0  0  0  0  0  0  0  0  0
    1.9370    0.3660    0.0000 C   0  0  0  0  0  0  0  0  0  0  0  0
    1.9520   -1.4180    0.0000 C   0  0  0  0  0  0  0  0  0  0  0  0
    0.2510   -1.9550    0.0000 C   0  0  0  0  0  0  0  0  0  0  0  0
   -1.4270   -0.4640    0.0000 C   0  0  3  0  0  0  0  0  0  0  0  0
   -2.3080    0.7500    0.0000 C   0  0  3  0  0  0  0  0  0  0  0  0
   -1.4270    1.9640    0.0000 C   0  0  3  0  0  0  0  0  0  0  0  0
   -2.9180    2.1200    0.0000 O   0  0  0  0  0  0  0  0  0  0  0  0
    3.1650   -2.3000    0.0000 O   0  0  0  0  0  0  0  0  0  0  0  0
    4.5350   -1.6890    0.0000 C   0  0  0  0  0  0  0  0  0  0  0  0
    4.6920   -0.1980    0.0000 O   0  0  0  0  0  0  0  0  0  0  0  0
    5.7490   -2.5710    0.0000 C   0  0  0  0  0  0  0  0  0  0  0  0
    7.1190   -1.9610    0.0000 C   0  0  0  0  0  0  0  0  0  0  0  0
    8.4180   -2.7110    0.0000 C   0  0  0  0  0  0  0  0  0  0  0  0
    9.5330   -1.7070    0.0000 C   0  0  0  0  0  0  0  0  0  0  0  0
    8.9230   -0.3370    0.0000 C   0  0  0  0  0  0  0  0  0  0  0  0
    7.4310   -0.4940    0.0000 S   0  0  0  0  0  0  0  0  0  0  0  0
    4.6700   -3.6130    0.0000 C   0  0  0  0  0  0  0  0  0  0  0  0
    3.1930   -3.3530    0.0000 C   0  0  0  0  0  0  0  0  0  0  0  0
    2.4880   -4.6770    0.0000 C   0  0  0  0  0  0  0  0  0  0  0  0
    3.5300   -5.7560    0.0000 C   0  0  0  0  0  0  0  0  0  0  0  0
    4.8790   -5.0980    0.0000 S   0  0  0  0  0  0  0  0  0  0  0  0
    6.5880   -3.8150    0.0000 O   0  0  0  0  0  0  0  0  0  0  0  0
    1.4920    0.1570    0.0000 C   0  0  0  0  0  0  0  0  0  0  0  0
  1  2  1  0  0  0  0
  2  3  1  0  0  0  0
  2  7  1  0  0  0  0
  2 26  1  0  0  0  0
  3  4  1  0  0  0  0
  3  9  1  0  0  0  0
  4  5  1  0  0  0  0
  5  6  1  0  0  0  0
  5 11  1  0  0  0  0
  6  7  1  0  0  0  0
  7  8  1  0  0  0  0
  8  9  1  0  0  0  0
  8 10  1  0  0  0  0
  9 10  1  0  0  0  0
 11 12  1  0  0  0  0
 12 13  2  0  0  0  0
 12 14  1  0  0  0  0
 14 15  1  0  0  0  0
 14 20  1  0  0  0  0
 14 25  1  0  0  0  0
 15 16  2  0  0  0  0
 15 19  1  0  0  0  0
 16 17  1  0  0  0  0
 17 18  2  0  0  0  0
 18 19  1  0  0  0  0
 20 21  2  0  0  0  0
 20 24  1  0  0  0  0
 21 22  1  0  0  0  0
 22 23  2  0  0  0  0
 23 24  1  0  0  0  0
M  CHG  1   2   1
M  END
>  <n>
121

>  <SMILES>
s1cccc1C(O)(C(OC1C[C@H]2[N+]([C@H]([C@@H]3O[C@H]23)C1)(C)C)=O)c1sccc1

>  <IC50>
>1000

>  <Class>
0

>  <NAME>
AZ173

>  <INCHI_KEY>
LERNTVKEWCAPOY-DZZGSBJMSA-N

>  <Reference>
Mitigating the inhibition of human Bile Salt Export Pump by drugs_ opportunities provided by physicochemical property modulation,  in-silico modeling and structural modification_SI

$$$$
AZ174
  MOE2013           2D

 25 30  0  0  1  0  0  0  0  0999 V2000
    1.7380    1.9310    0.0000 C   0  0  0  0  0  0  0  0  0  0  0  0
    2.8530    0.9270    0.0000 C   0  0  0  0  0  0  0  0  0  0  0  0
    2.5410   -0.5400    0.0000 C   0  0  0  0  0  0  0  0  0  0  0  0
    1.1150   -1.0040    0.0000 C   0  0  0  0  0  0  0  0  0  0  0  0
    0.0000    0.0000    0.0000 C   0  0  0  0  0  0  0  0  0  0  0  0
    0.3120    1.4670    0.0000 C   0  0  0  0  0  0  0  0  0  0  0  0
   -1.2990    2.2500    0.0000 C   0  0  0  0  0  0  0  0  0  0  0  0
   -3.0380    1.1810    0.0000 C   0  0  3  0  0  0  0  0  0  0  0  0
   -2.7260   -0.2860    0.0000 C   0  0  1  0  0  0  0  0  0  0  0  0
   -1.2990   -0.7500    0.0000 C   0  0  1  0  0  0  0  0  0  0  0  0
   -0.1840    0.2540    0.0000 C   0  0  0  0  0  0  0  0  0  0  0  0
   -0.4960    1.7210    0.0000 C   0  0  0  0  0  0  0  0  0  0  0  0
   -1.9230    2.1840    0.0000 N   0  0  3  0  0  0  0  0  0  0  0  0
   -2.2350    3.6520    0.0000 C   0  0  0  0  0  0  0  0  0  0  0  0
   -3.6610    4.1150    0.0000 C   0  0  0  0  0  0  0  0  0  0  0  0
   -4.6650    5.2300    0.0000 C   0  0  0  0  0  0  0  0  0  0  0  0
   -5.1280    3.8030    0.0000 C   0  0  0  0  0  0  0  0  0  0  0  0
   -0.9870   -2.2170    0.0000 C   0  0  3  0  0  0  0  0  0  0  0  0
    0.5050   -2.3740    0.0000 O   0  0  0  0  0  0  0  0  0  0  0  0
   -2.1020   -3.2210    0.0000 C   0  0  0  0  0  0  0  0  0  0  0  0
   -1.7900   -4.6880    0.0000 O   0  0  0  0  0  0  0  0  0  0  0  0
   -3.5280   -2.7570    0.0000 C   0  0  0  0  0  0  0  0  0  0  0  0
   -3.8400   -1.2900    0.0000 C   0  0  0  0  0  0  0  0  0  0  0  0
   -4.1520    0.1770    0.0000 O   0  0  0  0  0  0  0  0  0  0  0  0
    3.6560   -1.5440    0.0000 O   0  0  0  0  0  0  0  0  0  0  0  0
  1  2  1  0  0  0  0
  1  6  2  0  0  0  0
  2  3  2  0  0  0  0
  3  4  1  0  0  0  0
  3 25  1  0  0  0  0
  4  5  2  0  0  0  0
  4 19  1  0  0  0  0
  5  6  1  0  0  0  0
  6  7  1  0  0  0  0
  7  8  1  0  0  0  0
  8  9  1  0  0  0  0
  8 13  1  0  0  0  0
  9 10  1  0  0  0  0
  9 23  1  0  0  0  0
  9 24  1  6  0  0  0
 10  5  1  1  0  0  0
 10 11  1  0  0  0  0
 10 18  1  6  0  0  0
 11 12  1  0  0  0  0
 12 13  1  0  0  0  0
 13 14  1  0  0  0  0
 14 15  1  0  0  0  0
 15 16  1  0  0  0  0
 15 17  1  0  0  0  0
 16 17  1  0  0  0  0
 18 19  1  0  0  0  0
 18 20  1  0  0  0  0
 20 21  2  0  0  0  0
 20 22  1  0  0  0  0
 22 23  1  0  0  0  0
M  END
>  <n>
122

>  <SMILES>
O1[C@@H]2[C@]34CCN([C@H](Cc5c3c1c(O)cc5)[C@]4(O)CCC2=O)CC1CC1

>  <IC50>
>1000

>  <Class>
0

>  <NAME>
AZ174

>  <INCHI_KEY>
DQCKKXVULJGBQN-XFWGSAIBSA-N

>  <Reference>
Mitigating the inhibition of human Bile Salt Export Pump by drugs_ opportunities provided by physicochemical property modulation,  in-silico modeling and structural modification_SI

$$$$
AZ175
  MOE2013           2D

 20 21  0  0  1  0  0  0  0  0999 V2000
    1.0570   -2.3740    0.0000 C   0  0  0  0  0  0  0  0  0  0  0  0
    2.2700   -3.2550    0.0000 C   0  0  0  0  0  0  0  0  0  0  0  0
    3.6410   -2.6450    0.0000 C   0  0  0  0  0  0  0  0  0  0  0  0
    4.8540   -3.5270    0.0000 O   0  0  0  0  0  0  0  0  0  0  0  0
    3.7970   -1.1530    0.0000 N   0  0  0  0  0  0  0  0  0  0  0  0
    2.5840   -0.2720    0.0000 C   0  0  0  0  0  0  0  0  0  0  0  0
    2.7410    1.2200    0.0000 O   0  0  0  0  0  0  0  0  0  0  0  0
    1.2140   -0.8820    0.0000 N   0  0  0  0  0  0  0  0  0  0  0  0
    0.0000    0.0000    0.0000 C   0  0  3  0  0  0  0  0  0  0  0  0
    0.0000    1.5000    0.0000 C   0  0  0  0  0  0  0  0  0  0  0  0
   -1.4270    1.9640    0.0000 C   0  0  3  0  0  0  0  0  0  0  0  0
   -2.3080    0.7500    0.0000 C   0  0  3  0  0  0  0  0  0  0  0  0
   -1.4270   -0.4640    0.0000 O   0  0  0  0  0  0  0  0  0  0  0  0
   -3.8080    0.7500    0.0000 C   0  0  0  0  0  0  0  0  0  0  0  0
   -4.5580    2.0490    0.0000 O   0  0  0  0  0  0  0  0  0  0  0  0
   -1.8900    3.3900    0.0000 O   0  0  0  0  0  0  0  0  0  0  0  0
    2.1140   -4.7470    0.0000 C   0  0  0  0  0  0  0  0  0  0  0  0
    3.3270   -5.6290    0.0000 F   0  0  0  0  0  0  0  0  0  0  0  0
    0.6720   -4.3340    0.0000 F   0  0  0  0  0  0  0  0  0  0  0  0
    1.4560   -6.0950    0.0000 F   0  0  0  0  0  0  0  0  0  0  0  0
  1  2  2  0  0  0  0
  1  8  1  0  0  0  0
  2  3  1  0  0  0  0
  2 17  1  0  0  0  0
  3  4  2  0  0  0  0
  3  5  1  0  0  0  0
  5  6  1  0  0  0  0
  6  7  2  0  0  0  0
  6  8  1  0  0  0  0
  8  9  1  0  0  0  0
  9 10  1  0  0  0  0
  9 13  1  0  0  0  0
 10 11  1  0  0  0  0
 11 12  1  0  0  0  0
 11 16  1  0  0  0  0
 12 13  1  0  0  0  0
 12 14  1  0  0  0  0
 14 15  1  0  0  0  0
 17 18  1  0  0  0  0
 17 19  1  0  0  0  0
 17 20  1  0  0  0  0
M  END
>  <n>
123

>  <SMILES>
FC(F)(F)C1=CN([C@@H]2O[C@H](CO)[C@@H](O)C2)C(=O)NC1=O

>  <IC50>
>1000

>  <Class>
0

>  <NAME>
AZ175

>  <INCHI_KEY>
VSQQQLOSPVPRAZ-RRKCRQDMSA-N

>  <Reference>
Mitigating the inhibition of human Bile Salt Export Pump by drugs_ opportunities provided by physicochemical property modulation,  in-silico modeling and structural modification_SI

$$$$
AZ176
  MOE2013           2D

 28 31  0  0  1  0  0  0  0  0999 V2000
    0.7740   -5.8020    0.0000 C   0  0  0  0  0  0  0  0  0  0  0  0
    1.7770   -4.6880    0.0000 C   0  0  3  0  0  0  0  0  0  0  0  0
    3.2450   -5.0000    0.0000 C   0  0  0  0  0  0  0  0  0  0  0  0
    3.7080   -6.4260    0.0000 C   0  0  0  0  0  0  0  0  0  0  0  0
    5.1750   -6.7380    0.0000 C   0  0  0  0  0  0  0  0  0  0  0  0
    5.6390   -8.1650    0.0000 O   0  0  0  0  0  0  0  0  0  0  0  0
    6.1790   -5.6230    0.0000 O   0  0  0  0  0  0  0  0  0  0  0  0
    1.3140   -3.2610    0.0000 C   0  0  3  0  0  0  0  0  0  0  0  0
    2.1370   -2.1290    0.0000 C   0  0  0  0  0  0  0  0  0  0  0  0
    1.3140   -0.9960    0.0000 C   0  0  0  0  0  0  0  0  0  0  0  0
   -0.0180   -1.4290    0.0000 C   0  0  3  0  0  0  0  0  0  0  0  0
   -0.0180   -2.8290    0.0000 C   0  0  2  0  0  0  0  0  0  0  0  0
   -1.2300   -3.5290    0.0000 C   0  0  0  0  0  0  0  0  0  0  0  0
   -2.4430   -2.8290    0.0000 C   0  0  0  0  0  0  0  0  0  0  0  0
   -2.4430   -1.4290    0.0000 C   0  0  3  0  0  0  0  0  0  0  0  0
   -1.2300   -0.7290    0.0000 C   0  0  3  0  0  0  0  0  0  0  0  0
   -1.2300    0.6710    0.0000 C   0  0  3  0  0  0  0  0  0  0  0  0
   -2.4430    1.3710    0.0000 C   0  0  0  0  0  0  0  0  0  0  0  0
   -3.6550    0.6710    0.0000 C   0  0  3  0  0  0  0  0  0  0  0  0
   -3.6550   -0.7290    0.0000 C   0  0  2  0  0  0  0  0  0  0  0  0
   -4.8670   -1.4290    0.0000 C   0  0  0  0  0  0  0  0  0  0  0  0
   -6.0800   -0.7290    0.0000 C   0  0  0  0  0  0  0  0  0  0  0  0
   -6.0800    0.6710    0.0000 C   0  0  3  0  0  0  0  0  0  0  0  0
   -4.8670    1.3710    0.0000 C   0  0  0  0  0  0  0  0  0  0  0  0
   -7.3790    1.4210    0.0000 O   0  0  0  0  0  0  0  0  0  0  0  0
   -3.6550   -2.2290    0.0000 C   0  0  0  0  0  0  0  0  0  0  0  0
    0.0690    1.4210    0.0000 O   0  0  0  0  0  0  0  0  0  0  0  0
    0.1390   -4.3200    0.0000 C   0  0  0  0  0  0  0  0  0  0  0  0
  1  2  1  0  0  0  0
  2  3  1  0  0  0  0
  2  8  1  0  0  0  0
  3  4  1  0  0  0  0
  4  5  1  0  0  0  0
  5  6  2  0  0  0  0
  5  7  1  0  0  0  0
  8  9  1  0  0  0  0
  8 12  1  0  0  0  0
  9 10  1  0  0  0  0
 10 11  1  0  0  0  0
 11 12  1  0  0  0  0
 11 16  1  0  0  0  0
 12 13  1  0  0  0  0
 12 28  1  6  0  0  0
 13 14  1  0  0  0  0
 14 15  1  0  0  0  0
 15 16  1  0  0  0  0
 15 20  1  0  0  0  0
 16 17  1  0  0  0  0
 17 18  1  0  0  0  0
 17 27  1  0  0  0  0
 18 19  1  0  0  0  0
 19 20  1  0  0  0  0
 19 24  1  0  0  0  0
 20 21  1  0  0  0  0
 20 26  1  6  0  0  0
 21 22  1  0  0  0  0
 22 23  1  0  0  0  0
 23 24  1  0  0  0  0
 23 25  1  0  0  0  0
M  END
>  <n>
124

>  <SMILES>
O[C@@H]1CC[C@]2([C@@H](C1)C[C@H](O)[C@H]1[C@@H]3CC[C@H]([C@@H](CCC(O)=O)C)[C@]3(CC[C@@H]12)C)C

>  <IC50>
<10

>  <Class>
1

>  <NAME>
AZ176

>  <INCHI_KEY>
RUDATBOHQWOJDD-UZVSRGJWSA-N

>  <Reference>
Mitigating the inhibition of human Bile Salt Export Pump by drugs_ opportunities provided by physicochemical property modulation,  in-silico modeling and structural modification_SI

$$$$
AZ177
  MOE2013           2D

 24 28  0  0  1  0  0  0  0  0999 V2000
   -6.8210    0.8500    0.0000 C   0  0  0  0  0  0  0  0  0  0  0  0
   -5.3940    0.3870    0.0000 C   0  0  0  0  0  0  0  0  0  0  0  0
   -4.2800    1.3910    0.0000 C   0  0  0  0  0  0  0  0  0  0  0  0
   -2.8530    0.9270    0.0000 N   0  0  3  0  0  0  0  0  0  0  0  0
   -1.7380    1.9310    0.0000 C   0  0  0  0  0  0  0  0  0  0  0  0
   -0.3120    1.4670    0.0000 C   0  0  0  0  0  0  0  0  0  0  0  0
    0.0000    0.0000    0.0000 C   0  0  2  0  0  0  0  0  0  0  0  0
    0.0000    1.5000    0.0000 C   0  0  0  0  0  0  0  0  0  0  0  0
   -1.1150    2.5040    0.0000 C   0  0  0  0  0  0  0  0  0  0  0  0
   -0.8030    3.9710    0.0000 C   0  0  0  0  0  0  0  0  0  0  0  0
    0.6240    4.4340    0.0000 C   0  0  0  0  0  0  0  0  0  0  0  0
    1.7380    3.4310    0.0000 C   0  0  0  0  0  0  0  0  0  0  0  0
    1.4270    1.9640    0.0000 C   0  0  0  0  0  0  0  0  0  0  0  0
    2.3080    0.7500    0.0000 O   0  0  0  0  0  0  0  0  0  0  0  0
    1.4270   -0.4640    0.0000 C   0  0  3  0  0  0  0  0  0  0  0  0
    1.7380   -1.9310    0.0000 C   0  0  0  0  0  0  0  0  0  0  0  0
    3.1650   -2.3940    0.0000 O   0  0  0  0  0  0  0  0  0  0  0  0
    0.6240   -2.9340    0.0000 C   0  0  0  0  0  0  0  0  0  0  0  0
   -0.8030   -2.4710    0.0000 C   0  0  0  0  0  0  0  0  0  0  0  0
   -1.1150   -1.0040    0.0000 C   0  0  1  0  0  0  0  0  0  0  0  0
   -2.5410   -0.5400    0.0000 C   0  0  3  0  0  0  0  0  0  0  0  0
   -2.5980    1.5000    0.0000 C   0  0  0  0  0  0  0  0  0  0  0  0
   -2.2290   -2.0070    0.0000 O   0  0  0  0  0  0  0  0  0  0  0  0
    3.1650    3.8940    0.0000 O   0  0  0  0  0  0  0  0  0  0  0  0
  1  2  2  0  0  0  0
  2  3  1  0  0  0  0
  3  4  1  0  0  0  0
  4  5  1  0  0  0  0
  4 21  1  0  0  0  0
  5  6  1  0  0  0  0
  6  7  1  0  0  0  0
  7  8  1  1  0  0  0
  7 15  1  6  0  0  0
  7 20  1  0  0  0  0
  8  9  2  0  0  0  0
  8 13  1  0  0  0  0
  9 10  1  0  0  0  0
  9 22  1  0  0  0  0
 10 11  2  0  0  0  0
 11 12  1  0  0  0  0
 12 13  2  0  0  0  0
 12 24  1  0  0  0  0
 13 14  1  0  0  0  0
 14 15  1  0  0  0  0
 15 16  1  0  0  0  0
 16 17  2  0  0  0  0
 16 18  1  0  0  0  0
 18 19  1  0  0  0  0
 19 20  1  0  0  0  0
 20 21  1  0  0  0  0
 20 23  1  6  0  0  0
 21 22  1  0  0  0  0
M  END
>  <n>
125

>  <SMILES>
O1[C@@H]2[C@]34CCN([C@H](Cc5c3c1c(O)cc5)[C@]4(O)CCC2=O)CC=C

>  <IC50>
549

>  <Class>
0

>  <NAME>
AZ177

>  <INCHI_KEY>
UZHSEJADLWPNLE-GRGSLBFTSA-N

>  <Reference>
Mitigating the inhibition of human Bile Salt Export Pump by drugs_ opportunities provided by physicochemical property modulation,  in-silico modeling and structural modification_SI

$$$$
AZ178
  MOE2013           2D

 29 30  0  0  1  0  0  0  0  0999 V2000
    2.9330   -1.8990    0.0000 C   0  0  0  0  0  0  0  0  0  0  0  0
    3.8970   -0.7500    0.0000 C   0  0  2  0  0  0  0  0  0  0  0  0
    5.1960    0.0000    0.0000 C   0  0  0  0  0  0  0  0  0  0  0  0
    6.4950   -0.7500    0.0000 S   0  0  0  0  0  0  0  0  0  0  0  0
    5.5310   -1.8990    0.0000 O   0  0  0  0  0  0  0  0  0  0  0  0
    7.4590   -1.8990    0.0000 O   0  0  0  0  0  0  0  0  0  0  0  0
    7.7940    0.0000    0.0000 C   0  0  0  0  0  0  0  0  0  0  0  0
    9.0930   -0.7500    0.0000 C   0  0  0  0  0  0  0  0  0  0  0  0
   10.3920    0.0000    0.0000 C   0  0  0  0  0  0  0  0  0  0  0  0
   10.3920    1.5000    0.0000 C   0  0  0  0  0  0  0  0  0  0  0  0
    9.0930    2.2500    0.0000 C   0  0  0  0  0  0  0  0  0  0  0  0
    7.7940    1.5000    0.0000 C   0  0  0  0  0  0  0  0  0  0  0  0
   11.6910    2.2500    0.0000 F   0  0  0  0  0  0  0  0  0  0  0  0
    2.5980    0.0000    0.0000 C   0  0  0  0  0  0  0  0  0  0  0  0
    2.5980    1.5000    0.0000 O   0  0  0  0  0  0  0  0  0  0  0  0
    1.2990   -0.7500    0.0000 N   0  0  0  0  0  0  0  0  0  0  0  0
    0.0000    0.0000    0.0000 C   0  0  0  0  0  0  0  0  0  0  0  0
    0.0000    1.5000    0.0000 C   0  0  0  0  0  0  0  0  0  0  0  0
   -1.2990    2.2500    0.0000 C   0  0  0  0  0  0  0  0  0  0  0  0
   -2.5980    1.5000    0.0000 C   0  0  0  0  0  0  0  0  0  0  0  0
   -2.5980    0.0000    0.0000 C   0  0  0  0  0  0  0  0  0  0  0  0
   -1.2990   -0.7500    0.0000 C   0  0  0  0  0  0  0  0  0  0  0  0
   -3.8970   -0.7500    0.0000 C   0  0  0  0  0  0  0  0  0  0  0  0
   -5.1960    0.0000    0.0000 F   0  0  0  0  0  0  0  0  0  0  0  0
   -4.8610   -1.8990    0.0000 F   0  0  0  0  0  0  0  0  0  0  0  0
   -2.9330   -1.8990    0.0000 F   0  0  0  0  0  0  0  0  0  0  0  0
   -3.8970    2.2500    0.0000 C   0  0  0  0  0  0  0  0  0  0  0  0
   -5.1960    3.0000    0.0000 N   0  0  0  0  0  0  0  0  0  0  0  0
    4.8610   -1.8990    0.0000 O   0  0  0  0  0  0  0  0  0  0  0  0
  2  1  1  1  0  0  0
  2  3  1  0  0  0  0
  2 14  1  0  0  0  0
  2 29  1  6  0  0  0
  3  4  1  0  0  0  0
  4  5  2  0  0  0  0
  4  6  2  0  0  0  0
  4  7  1  0  0  0  0
  7  8  1  0  0  0  0
  7 12  2  0  0  0  0
  8  9  2  0  0  0  0
  9 10  1  0  0  0  0
 10 11  2  0  0  0  0
 10 13  1  0  0  0  0
 11 12  1  0  0  0  0
 14 15  2  0  0  0  0
 14 16  1  0  0  0  0
 16 17  1  0  0  0  0
 17 18  1  0  0  0  0
 17 22  2  0  0  0  0
 18 19  2  0  0  0  0
 19 20  1  0  0  0  0
 20 21  2  0  0  0  0
 20 27  1  0  0  0  0
 21 22  1  0  0  0  0
 21 23  1  0  0  0  0
 23 24  1  0  0  0  0
 23 25  1  0  0  0  0
 23 26  1  0  0  0  0
 27 28  3  0  0  0  0
M  END
>  <n>
126

>  <SMILES>
S(=O)(=O)(C[C@](O)(C(=O)Nc1cc(C(F)(F)F)c(cc1)C#N)C)c1ccc(F)cc1

>  <IC50>
<10

>  <Class>
1

>  <NAME>
AZ178

>  <INCHI_KEY>
LKJPYSCBVHEWIU-KRWDZBQOSA-N

>  <Reference>
Mitigating the inhibition of human Bile Salt Export Pump by drugs_ opportunities provided by physicochemical property modulation,  in-silico modeling and structural modification_SI

$$$$
AZ179
  MOE2013           2D

 18 19  0  0  1  0  0  0  0  0999 V2000
    1.2990   -0.7500    0.0000 C   0  0  0  0  0  0  0  0  0  0  0  0
    0.0000    0.0000    0.0000 C   0  0  0  0  0  0  0  0  0  0  0  0
    0.0000    1.5000    0.0000 C   0  0  0  0  0  0  0  0  0  0  0  0
   -1.2990    2.2500    0.0000 C   0  0  0  0  0  0  0  0  0  0  0  0
   -2.5980    1.5000    0.0000 C   0  0  0  0  0  0  0  0  0  0  0  0
   -2.5980    0.0000    0.0000 C   0  0  0  0  0  0  0  0  0  0  0  0
   -1.2990   -0.7500    0.0000 C   0  0  0  0  0  0  0  0  0  0  0  0
   -1.2990   -2.2500    0.0000 N   0  0  0  0  0  0  0  0  0  0  0  0
    0.0000   -3.0000    0.0000 C   0  0  0  0  0  0  0  0  0  0  0  0
    1.2990   -2.2500    0.0000 O   0  0  0  0  0  0  0  0  0  0  0  0
    0.0000   -4.5000    0.0000 C   0  0  3  0  0  0  0  0  0  0  0  0
   -1.2990   -5.2500    0.0000 C   0  0  0  0  0  0  0  0  0  0  0  0
   -1.2990   -6.7500    0.0000 C   0  0  0  0  0  0  0  0  0  0  0  0
    0.0000   -7.5000    0.0000 C   0  0  0  0  0  0  0  0  0  0  0  0
    1.2990   -6.7500    0.0000 C   0  0  0  0  0  0  0  0  0  0  0  0
    1.2990   -5.2500    0.0000 N   0  0  3  0  0  0  0  0  0  0  0  0
    2.5980   -4.5000    0.0000 C   0  0  0  0  0  0  0  0  0  0  0  0
   -3.8970   -0.7500    0.0000 C   0  0  0  0  0  0  0  0  0  0  0  0
  1  2  1  0  0  0  0
  2  3  1  0  0  0  0
  2  7  2  0  0  0  0
  3  4  2  0  0  0  0
  4  5  1  0  0  0  0
  5  6  2  0  0  0  0
  6  7  1  0  0  0  0
  6 18  1  0  0  0  0
  7  8  1  0  0  0  0
  8  9  1  0  0  0  0
  9 10  2  0  0  0  0
  9 11  1  0  0  0  0
 11 12  1  0  0  0  0
 11 16  1  0  0  0  0
 12 13  1  0  0  0  0
 13 14  1  0  0  0  0
 14 15  1  0  0  0  0
 15 16  1  0  0  0  0
 16 17  1  0  0  0  0
M  END
>  <n>
127

>  <SMILES>
O=C(Nc1c(cccc1C)C)[C@@H]1N(CCCC1)C

>  <IC50>
>1000

>  <Class>
0

>  <NAME>
AZ179

>  <INCHI_KEY>
INWLQCZOYSRPNW-CYBMUJFWSA-N

>  <Reference>
Mitigating the inhibition of human Bile Salt Export Pump by drugs_ opportunities provided by physicochemical property modulation,  in-silico modeling and structural modification_SI

$$$$
AZ18
  MOE2013           2D

 42 47  0  0  0  0  0  0  0  0999 V2000
    2.5980   10.5000    0.0000 C   0  0  0  0  0  0  0  0  0  0  0  0
    2.5980    9.0000    0.0000 C   0  0  0  0  0  0  0  0  0  0  0  0
    1.2990    8.2500    0.0000 C   0  0  0  0  0  0  0  0  0  0  0  0
    1.2990    6.7500    0.0000 C   0  0  0  0  0  0  0  0  0  0  0  0
    2.5980    6.0000    0.0000 C   0  0  0  0  0  0  0  0  0  0  0  0
    3.8970    6.7500    0.0000 C   0  0  0  0  0  0  0  0  0  0  0  0
    3.8970    8.2500    0.0000 C   0  0  0  0  0  0  0  0  0  0  0  0
    5.1960    9.0000    0.0000 N   0  0  0  0  0  0  0  0  0  0  0  0
    5.1960   10.5000    0.0000 C   0  0  0  0  0  0  0  0  0  0  0  0
    3.8970   11.2500    0.0000 O   0  0  0  0  0  0  0  0  0  0  0  0
    6.4950   11.2500    0.0000 C   0  0  0  0  0  0  0  0  0  0  0  0
    7.7940   10.5000    0.0000 C   0  0  0  0  0  0  0  0  0  0  0  0
    9.0930   11.2500    0.0000 C   0  0  0  0  0  0  0  0  0  0  0  0
    9.0930   12.7500    0.0000 C   0  0  0  0  0  0  0  0  0  0  0  0
    7.7940   13.5000    0.0000 C   0  0  0  0  0  0  0  0  0  0  0  0
    6.4950   12.7500    0.0000 C   0  0  0  0  0  0  0  0  0  0  0  0
    7.7940   15.0000    0.0000 O   0  0  0  0  0  0  0  0  0  0  0  0
    9.0930   15.7500    0.0000 C   0  0  0  0  0  0  0  0  0  0  0  0
   10.3920   15.0000    0.0000 C   0  0  0  0  0  0  0  0  0  0  0  0
   11.6910   15.7500    0.0000 C   0  0  0  0  0  0  0  0  0  0  0  0
   11.6910   17.2500    0.0000 N   0  0  0  0  0  0  0  0  0  0  0  0
   10.3920   18.0000    0.0000 C   0  0  0  0  0  0  0  0  0  0  0  0
    9.0930   17.2500    0.0000 C   0  0  0  0  0  0  0  0  0  0  0  0
   12.9900   18.0000    0.0000 C   0  0  0  0  0  0  0  0  0  0  0  0
   12.9900   19.5000    0.0000 C   0  0  0  0  0  0  0  0  0  0  0  0
   14.2890   17.2500    0.0000 C   0  0  0  0  0  0  0  0  0  0  0  0
    2.5980    4.5000    0.0000 N   0  0  0  0  0  0  0  0  0  0  0  0
    1.2990    3.7500    0.0000 C   0  0  0  0  0  0  0  0  0  0  0  0
    0.0000    4.5000    0.0000 O   0  0  0  0  0  0  0  0  0  0  0  0
    1.2990    2.2500    0.0000 C   0  0  0  0  0  0  0  0  0  0  0  0
    2.5980    1.5000    0.0000 C   0  0  0  0  0  0  0  0  0  0  0  0
    2.5980    0.0000    0.0000 C   0  0  0  0  0  0  0  0  0  0  0  0
    1.2990   -0.7500    0.0000 C   0  0  0  0  0  0  0  0  0  0  0  0
    0.0000    0.0000    0.0000 C   0  0  0  0  0  0  0  0  0  0  0  0
    0.0000    1.5000    0.0000 C   0  0  0  0  0  0  0  0  0  0  0  0
   -1.4270    1.9640    0.0000 O   0  0  0  0  0  0  0  0  0  0  0  0
   -2.3080    0.7500    0.0000 C   0  0  0  0  0  0  0  0  0  0  0  0
   -1.4270   -0.4640    0.0000 C   0  0  0  0  0  0  0  0  0  0  0  0
   -2.0370   -1.8340    0.0000 C   0  0  0  0  0  0  0  0  0  0  0  0
   -3.5280   -1.9910    0.0000 C   0  0  0  0  0  0  0  0  0  0  0  0
   -4.4100   -0.7770    0.0000 C   0  0  0  0  0  0  0  0  0  0  0  0
   -3.8000    0.5930    0.0000 C   0  0  0  0  0  0  0  0  0  0  0  0
  1  2  1  0  0  0  0
  2  3  1  0  0  0  0
  2  7  2  0  0  0  0
  3  4  2  0  0  0  0
  4  5  1  0  0  0  0
  5  6  2  0  0  0  0
  5 27  1  0  0  0  0
  6  7  1  0  0  0  0
  7  8  1  0  0  0  0
  8  9  1  0  0  0  0
  9 10  2  0  0  0  0
  9 11  1  0  0  0  0
 11 12  1  0  0  0  0
 11 16  2  0  0  0  0
 12 13  2  0  0  0  0
 13 14  1  0  0  0  0
 14 15  2  0  0  0  0
 15 16  1  0  0  0  0
 15 17  1  0  0  0  0
 17 18  1  0  0  0  0
 18 19  1  0  0  0  0
 18 23  1  0  0  0  0
 19 20  1  0  0  0  0
 20 21  1  0  0  0  0
 21 22  1  0  0  0  0
 21 24  1  0  0  0  0
 22 23  1  0  0  0  0
 24 25  1  0  0  0  0
 24 26  1  0  0  0  0
 27 28  1  0  0  0  0
 28 29  2  0  0  0  0
 28 30  1  0  0  0  0
 30 31  1  0  0  0  0
 30 35  2  0  0  0  0
 31 32  2  0  0  0  0
 32 33  1  0  0  0  0
 33 34  2  0  0  0  0
 34 35  1  0  0  0  0
 34 38  1  0  0  0  0
 35 36  1  0  0  0  0
 36 37  1  0  0  0  0
 37 38  1  0  0  0  0
 37 42  2  0  0  0  0
 38 39  2  0  0  0  0
 39 40  1  0  0  0  0
 40 41  2  0  0  0  0
 41 42  1  0  0  0  0
M  END
>  <n>
128

>  <SMILES>
o1c2c(c3c1cccc3)cccc2C(=O)Nc1cc(NC(=O)c2cc(OC3CCN(CC3)C(C)C)ccc2)c(cc1)C

>  <IC50>
<10

>  <Class>
1

>  <NAME>
AZ18

>  <INCHI_KEY>
RWEWYSQVEXHIMO-UHFFFAOYSA-N

>  <Reference>
Mitigating the inhibition of human Bile Salt Export Pump by drugs_ opportunities provided by physicochemical property modulation,  in-silico modeling and structural modification_SI

$$$$
AZ180
  MOE2013           2D

 34 36  0  0  1  0  0  0  0  0999 V2000
    1.2990   -0.7500    0.0000 C   0  0  0  0  0  0  0  0  0  0  0  0
    0.0000    0.0000    0.0000 C   0  0  0  0  0  0  0  0  0  0  0  0
    0.0000    1.5000    0.0000 C   0  0  0  0  0  0  0  0  0  0  0  0
   -1.2990    2.2500    0.0000 C   0  0  0  0  0  0  0  0  0  0  0  0
   -2.5980    1.5000    0.0000 C   0  0  0  0  0  0  0  0  0  0  0  0
   -2.5980    0.0000    0.0000 C   0  0  0  0  0  0  0  0  0  0  0  0
   -1.2990   -0.7500    0.0000 C   0  0  0  0  0  0  0  0  0  0  0  0
   -3.8970   -0.7500    0.0000 N   0  3  0  0  0  0  0  0  0  0  0  0
   -3.8970   -2.2500    0.0000 O   0  0  0  0  0  0  0  0  0  0  0  0
   -5.1960    0.0000    0.0000 O   0  5  0  0  0  0  0  0  0  0  0  0
   -3.8970    2.2500    0.0000 O   0  0  0  0  0  0  0  0  0  0  0  0
   -3.8970    3.7500    0.0000 C   0  0  0  0  0  0  0  0  0  0  0  0
   -2.4200    3.4900    0.0000 C   0  0  0  0  0  0  0  0  0  0  0  0
   -3.3840    5.1600    0.0000 C   0  0  0  0  0  0  0  0  0  0  0  0
   -5.1960    4.5000    0.0000 C   0  0  3  0  0  0  0  0  0  0  0  0
   -5.1960    6.0000    0.0000 O   0  0  0  0  0  0  0  0  0  0  0  0
   -6.4950    6.7500    0.0000 C   0  0  0  0  0  0  0  0  0  0  0  0
   -7.7940    6.0000    0.0000 C   0  0  3  0  0  0  0  0  0  0  0  0
   -7.7940    4.5000    0.0000 C   0  0  3  0  0  0  0  0  0  0  0  0
   -6.4950    3.7500    0.0000 O   0  0  0  0  0  0  0  0  0  0  0  0
   -9.0930    3.7500    0.0000 C   0  0  0  0  0  0  0  0  0  0  0  0
  -10.3920    4.5000    0.0000 C   0  0  0  0  0  0  0  0  0  0  0  0
  -11.6910    3.7500    0.0000 C   0  0  0  0  0  0  0  0  0  0  0  0
  -11.6910    2.2500    0.0000 C   0  0  0  0  0  0  0  0  0  0  0  0
  -10.3920    1.5000    0.0000 N   0  0  0  0  0  0  0  0  0  0  0  0
   -9.0930    2.2500    0.0000 C   0  0  0  0  0  0  0  0  0  0  0  0
   -9.0930    6.7500    0.0000 C   0  0  0  0  0  0  0  0  0  0  0  0
   -9.0930    8.2500    0.0000 C   0  0  0  0  0  0  0  0  0  0  0  0
  -10.3920    9.0000    0.0000 C   0  0  0  0  0  0  0  0  0  0  0  0
  -11.6910    8.2500    0.0000 C   0  0  0  0  0  0  0  0  0  0  0  0
  -12.9900    9.0000    0.0000 C   0  0  0  0  0  0  0  0  0  0  0  0
  -14.2890    8.2500    0.0000 C   0  0  0  0  0  0  0  0  0  0  0  0
  -15.5880    9.0000    0.0000 O   0  0  0  0  0  0  0  0  0  0  0  0
  -14.2890    6.7500    0.0000 O   0  0  0  0  0  0  0  0  0  0  0  0
  1  2  1  0  0  0  0
  2  3  2  0  0  0  0
  2  7  1  0  0  0  0
  3  4  1  0  0  0  0
  4  5  2  0  0  0  0
  5  6  1  0  0  0  0
  5 11  1  0  0  0  0
  6  7  2  0  0  0  0
  6  8  1  0  0  0  0
  8  9  2  0  0  0  0
  8 10  1  0  0  0  0
 11 12  1  0  0  0  0
 12 13  1  0  0  0  0
 12 14  1  0  0  0  0
 12 15  1  0  0  0  0
 15 16  1  0  0  0  0
 15 20  1  0  0  0  0
 16 17  1  0  0  0  0
 17 18  1  0  0  0  0
 18 19  1  0  0  0  0
 18 27  1  0  0  0  0
 19 20  1  0  0  0  0
 19 21  1  0  0  0  0
 21 22  1  0  0  0  0
 21 26  2  0  0  0  0
 22 23  2  0  0  0  0
 23 24  1  0  0  0  0
 24 25  2  0  0  0  0
 25 26  1  0  0  0  0
 27 28  1  0  0  0  0
 28 29  2  0  0  0  0
 29 30  1  0  0  0  0
 30 31  1  0  0  0  0
 31 32  1  0  0  0  0
 32 33  2  0  0  0  0
 32 34  1  0  0  0  0
M  CHG  1   8   1
M  CHG  1  10  -1
M  END
>  <n>
129

>  <SMILES>
O1[C@@H]([C@@H](CO[C@@H]1C(Oc1ccc(cc1[N+](=O)[O-])C)(C)C)C\C=C/CCC(O)=O)c1cccnc1

>  <IC50>
<10

>  <Class>
1

>  <NAME>
AZ180

>  <INCHI_KEY>
VGBBXLWOWUXXFE-GWLGBLMRSA-N

>  <Reference>
Mitigating the inhibition of human Bile Salt Export Pump by drugs_ opportunities provided by physicochemical property modulation,  in-silico modeling and structural modification_SI

$$$$
AZ181
  MOE2013           2D

 26 26  0  0  1  0  0  0  0  0999 V2000
   10.3350   -1.0860    0.0000 C   0  0  0  0  0  0  0  0  0  0  0  0
    8.9650   -1.6960    0.0000 C   0  0  0  0  0  0  0  0  0  0  0  0
    7.7520   -0.8150    0.0000 C   0  0  0  0  0  0  0  0  0  0  0  0
    6.3810   -1.4250    0.0000 C   0  0  0  0  0  0  0  0  0  0  0  0
    5.1680   -0.5430    0.0000 C   0  0  0  0  0  0  0  0  0  0  0  0
    3.7970   -1.1530    0.0000 C   0  0  3  0  0  0  0  0  0  0  0  0
    2.7180   -2.1950    0.0000 C   0  0  0  0  0  0  0  0  0  0  0  0
    2.5840   -0.2720    0.0000 C   0  0  0  0  0  0  0  0  0  0  0  0
    1.2140   -0.8820    0.0000 C   0  0  0  0  0  0  0  0  0  0  0  0
    0.0000    0.0000    0.0000 C   0  0  3  0  0  0  0  0  0  0  0  0
    0.0000    1.5000    0.0000 C   0  0  3  0  0  0  0  0  0  0  0  0
   -1.4270    1.9640    0.0000 C   0  0  0  0  0  0  0  0  0  0  0  0
   -2.3080    0.7500    0.0000 C   0  0  3  0  0  0  0  0  0  0  0  0
   -1.4270   -0.4640    0.0000 C   0  0  3  0  0  0  0  0  0  0  0  0
   -1.8900   -1.8900    0.0000 C   0  0  0  0  0  0  0  0  0  0  0  0
   -3.3570   -2.2020    0.0000 C   0  0  0  0  0  0  0  0  0  0  0  0
   -3.8210   -3.6290    0.0000 C   0  0  0  0  0  0  0  0  0  0  0  0
   -2.8170   -4.7430    0.0000 C   0  0  0  0  0  0  0  0  0  0  0  0
   -3.2810   -6.1700    0.0000 C   0  0  0  0  0  0  0  0  0  0  0  0
   -2.2770   -7.2850    0.0000 C   0  0  0  0  0  0  0  0  0  0  0  0
   -2.7400   -8.7110    0.0000 C   0  0  0  0  0  0  0  0  0  0  0  0
   -1.7370   -9.8260    0.0000 O   0  0  0  0  0  0  0  0  0  0  0  0
   -4.2080   -9.0230    0.0000 O   0  0  0  0  0  0  0  0  0  0  0  0
   -3.8080    0.7500    0.0000 O   0  0  0  0  0  0  0  0  0  0  0  0
    1.2140    2.3820    0.0000 O   0  0  0  0  0  0  0  0  0  0  0  0
    4.6360   -2.3970    0.0000 O   0  0  0  0  0  0  0  0  0  0  0  0
  1  2  1  0  0  0  0
  2  3  1  0  0  0  0
  3  4  1  0  0  0  0
  4  5  1  0  0  0  0
  5  6  1  0  0  0  0
  6  7  1  0  0  0  0
  6  8  1  0  0  0  0
  6 26  1  0  0  0  0
  8  9  2  0  0  0  0
  9 10  1  0  0  0  0
 10 11  1  0  0  0  0
 10 14  1  0  0  0  0
 11 12  1  0  0  0  0
 11 25  1  0  0  0  0
 12 13  1  0  0  0  0
 13 14  1  0  0  0  0
 13 24  1  0  0  0  0
 14 15  1  0  0  0  0
 15 16  1  0  0  0  0
 16 17  2  0  0  0  0
 17 18  1  0  0  0  0
 18 19  1  0  0  0  0
 19 20  1  0  0  0  0
 20 21  1  0  0  0  0
 21 22  2  0  0  0  0
 21 23  1  0  0  0  0
M  END
>  <n>
130

>  <SMILES>
O[C@H]1C[C@@H](O)[C@H](\C=C\C(O)(CCCCC)C)[C@H]1C\C=C/CCCC(O)=O

>  <IC50>
328.7

>  <Class>
0

>  <NAME>
AZ181

>  <INCHI_KEY>
DLJKPYFALUEJCK-HGUCYINHSA-N

>  <Reference>
Mitigating the inhibition of human Bile Salt Export Pump by drugs_ opportunities provided by physicochemical property modulation,  in-silico modeling and structural modification_SI

$$$$
AZ182
  MOE2013           2D

 24 26  0  0  1  0  0  0  0  0999 V2000
    3.8970   -0.7500    0.0000 C   0  0  0  0  0  0  0  0  0  0  0  0
    2.5980    0.0000    0.0000 C   0  0  0  0  0  0  0  0  0  0  0  0
    1.2990   -0.7500    0.0000 C   0  0  0  0  0  0  0  0  0  0  0  0
    0.0000    0.0000    0.0000 N   0  0  0  0  0  0  0  0  0  0  0  0
    0.0000    1.5000    0.0000 C   0  0  3  0  0  0  0  0  0  0  0  0
   -1.5000    1.5000    0.0000 C   0  0  3  0  0  0  0  0  0  0  0  0
   -1.5000    0.0000    0.0000 C   0  0  0  0  0  0  0  0  0  0  0  0
   -2.5610   -1.0610    0.0000 O   0  0  0  0  0  0  0  0  0  0  0  0
   -2.5610    2.5610    0.0000 N   0  0  0  0  0  0  0  0  0  0  0  0
   -4.0100    2.1720    0.0000 C   0  0  0  0  0  0  0  0  0  0  0  0
   -4.3980    0.7240    0.0000 O   0  0  0  0  0  0  0  0  0  0  0  0
   -5.0700    3.2330    0.0000 C   0  0  3  0  0  0  0  0  0  0  0  0
   -6.5190    2.8450    0.0000 C   0  0  0  0  0  0  0  0  0  0  0  0
   -7.5800    3.9060    0.0000 C   0  0  0  0  0  0  0  0  0  0  0  0
   -9.0290    3.5170    0.0000 C   0  0  0  0  0  0  0  0  0  0  0  0
   -9.4170    2.0680    0.0000 C   0  0  0  0  0  0  0  0  0  0  0  0
   -8.3560    1.0080    0.0000 C   0  0  0  0  0  0  0  0  0  0  0  0
   -6.9070    1.3960    0.0000 C   0  0  0  0  0  0  0  0  0  0  0  0
   -4.6820    4.6820    0.0000 N   0  0  0  0  0  0  0  0  0  0  0  0
    1.2990    2.2500    0.0000 S   0  0  0  0  0  0  0  0  0  0  0  0
    2.5980    1.5000    0.0000 C   0  0  0  0  0  0  0  0  0  0  0  0
    1.2990   -2.2500    0.0000 C   0  0  0  0  0  0  0  0  0  0  0  0
    2.5980   -3.0000    0.0000 O   0  0  0  0  0  0  0  0  0  0  0  0
    0.0000   -3.0000    0.0000 O   0  0  0  0  0  0  0  0  0  0  0  0
  1  2  1  0  0  0  0
  2  3  2  0  0  0  0
  2 21  1  0  0  0  0
  3  4  1  0  0  0  0
  3 22  1  0  0  0  0
  4  5  1  0  0  0  0
  4  7  1  0  0  0  0
  5  6  1  0  0  0  0
  5 20  1  0  0  0  0
  6  7  1  0  0  0  0
  6  9  1  0  0  0  0
  7  8  2  0  0  0  0
  9 10  1  0  0  0  0
 10 11  2  0  0  0  0
 10 12  1  0  0  0  0
 12 13  1  0  0  0  0
 12 19  1  0  0  0  0
 13 14  2  0  0  0  0
 13 18  1  0  0  0  0
 14 15  1  0  0  0  0
 15 16  1  0  0  0  0
 16 17  2  0  0  0  0
 17 18  1  0  0  0  0
 20 21  1  0  0  0  0
 22 23  2  0  0  0  0
 22 24  1  0  0  0  0
M  END
>  <n>
131

>  <SMILES>
S1CC(C)=C(N2C1[C@H](NC(=O)C(N)C=1CC=CCC=1)C2=O)C(O)=O

>  <IC50>
>1000

>  <Class>
0

>  <NAME>
AZ182

>  <INCHI_KEY>
RDLPVSKMFDYCOR-LOIXOFCESA-N

>  <Reference>
Mitigating the inhibition of human Bile Salt Export Pump by drugs_ opportunities provided by physicochemical property modulation,  in-silico modeling and structural modification_SI

$$$$
AZ184
  MOE2013           2D

 51 53  0  0  1  0  0  0  0  0999 V2000
    0.0310  -11.2480    0.0000 C   0  0  0  0  0  0  0  0  0  0  0  0
   -0.8140  -10.0090    0.0000 C   0  0  0  0  0  0  0  0  0  0  0  0
   -0.1630   -8.6570    0.0000 C   0  0  3  0  0  0  0  0  0  0  0  0
    1.2990   -8.9910    0.0000 C   0  0  1  0  0  0  0  0  0  0  0  0
    2.7610   -8.6570    0.0000 C   0  0  3  0  0  0  0  0  0  0  0  0
    3.9340   -7.7220    0.0000 C   0  0  3  0  0  0  0  0  0  0  0  0
    4.5850   -6.3700    0.0000 C   0  0  0  0  0  0  0  0  0  0  0  0
    6.0470   -6.7040    0.0000 O   0  0  0  0  0  0  0  0  0  0  0  0
    4.5850   -4.8700    0.0000 C   0  0  3  0  0  0  0  0  0  0  0  0
    3.9340   -3.5190    0.0000 C   0  0  0  0  0  0  0  0  0  0  0  0
    2.7610   -2.5840    0.0000 C   0  0  1  0  0  0  0  0  0  0  0  0
    1.2990   -2.2500    0.0000 C   0  0  3  0  0  0  0  0  0  0  0  0
   -0.1630   -2.5840    0.0000 C   0  0  3  0  0  0  0  0  0  0  0  0
   -1.3360   -3.5190    0.0000 C   0  0  3  0  0  0  0  0  0  0  0  0
   -1.9870   -4.8700    0.0000 C   0  0  3  0  0  0  0  0  0  0  0  0
   -1.9870   -6.3700    0.0000 C   0  0  0  0  0  0  0  0  0  0  0  0
   -3.4490   -6.7040    0.0000 O   0  0  0  0  0  0  0  0  0  0  0  0
   -1.3360   -7.7220    0.0000 O   0  0  0  0  0  0  0  0  0  0  0  0
   -3.4490   -4.5370    0.0000 C   0  0  0  0  0  0  0  0  0  0  0  0
   -2.5090   -2.5840    0.0000 O   0  0  0  0  0  0  0  0  0  0  0  0
   -3.9050   -3.1320    0.0000 C   0  0  3  0  0  0  0  0  0  0  0  0
   -5.0780   -2.1970    0.0000 C   0  0  0  0  0  0  0  0  0  0  0  0
   -6.4740   -2.7450    0.0000 C   0  0  1  0  0  0  0  0  0  0  0  0
   -6.6980   -4.2280    0.0000 C   0  0  3  0  0  0  0  0  0  0  0  0
   -5.5250   -5.1630    0.0000 C   0  0  3  0  0  0  0  0  0  0  0  0
   -4.1290   -4.6150    0.0000 O   0  0  0  0  0  0  0  0  0  0  0  0
   -5.7490   -6.6460    0.0000 C   0  0  0  0  0  0  0  0  0  0  0  0
   -8.0940   -4.7760    0.0000 O   0  0  0  0  0  0  0  0  0  0  0  0
   -6.7710   -1.2740    0.0000 C   0  0  0  0  0  0  0  0  0  0  0  0
   -7.9740   -2.7820    0.0000 O   0  0  0  0  0  0  0  0  0  0  0  0
   -8.7560   -1.5020    0.0000 C   0  0  0  0  0  0  0  0  0  0  0  0
   -0.8140   -1.2320    0.0000 C   0  0  0  0  0  0  0  0  0  0  0  0
    1.2990   -0.7500    0.0000 O   0  0  0  0  0  0  0  0  0  0  0  0
    0.0000    0.0000    0.0000 C   0  0  3  0  0  0  0  0  0  0  0  0
    0.0000    1.5000    0.0000 C   0  0  3  0  0  0  0  0  0  0  0  0
   -1.2990    2.2500    0.0000 C   0  0  3  0  0  0  0  0  0  0  0  0
   -2.5980    1.5000    0.0000 C   0  0  0  0  0  0  0  0  0  0  0  0
   -2.5980    0.0000    0.0000 C   0  0  3  0  0  0  0  0  0  0  0  0
   -1.2990   -0.7500    0.0000 O   0  0  0  0  0  0  0  0  0  0  0  0
   -3.8970   -0.7500    0.0000 C   0  0  0  0  0  0  0  0  0  0  0  0
   -1.2990    3.7500    0.0000 N   0  0  0  0  0  0  0  0  0  0  0  0
   -2.5980    4.5000    0.0000 C   0  0  0  0  0  0  0  0  0  0  0  0
    0.0000    4.5000    0.0000 C   0  0  0  0  0  0  0  0  0  0  0  0
    1.2990    2.2500    0.0000 O   0  0  0  0  0  0  0  0  0  0  0  0
    4.0600   -1.8340    0.0000 C   0  0  0  0  0  0  0  0  0  0  0  0
    2.5380   -1.1000    0.0000 O   0  0  0  0  0  0  0  0  0  0  0  0
    6.0470   -4.5370    0.0000 C   0  0  0  0  0  0  0  0  0  0  0  0
    5.1070   -8.6570    0.0000 C   0  0  0  0  0  0  0  0  0  0  0  0
    3.4120  -10.0090    0.0000 O   0  0  0  0  0  0  0  0  0  0  0  0
    0.4540  -10.2300    0.0000 C   0  0  0  0  0  0  0  0  0  0  0  0
    2.1440  -10.2300    0.0000 O   0  0  0  0  0  0  0  0  0  0  0  0
  1  2  1  0  0  0  0
  2  3  1  0  0  0  0
  3  4  1  0  0  0  0
  3 18  1  0  0  0  0
  4  5  1  0  0  0  0
  4 50  1  1  0  0  0
  4 51  1  6  0  0  0
  5  6  1  0  0  0  0
  5 49  1  0  0  0  0
  6  7  1  0  0  0  0
  6 48  1  0  0  0  0
  7  8  2  0  0  0  0
  7  9  1  0  0  0  0
  9 10  1  0  0  0  0
  9 47  1  0  0  0  0
 10 11  1  0  0  0  0
 11 12  1  0  0  0  0
 11 45  1  1  0  0  0
 11 46  1  6  0  0  0
 12 13  1  0  0  0  0
 12 33  1  0  0  0  0
 13 14  1  0  0  0  0
 13 32  1  0  0  0  0
 14 15  1  0  0  0  0
 14 20  1  0  0  0  0
 15 16  1  0  0  0  0
 15 19  1  0  0  0  0
 16 17  2  0  0  0  0
 16 18  1  0  0  0  0
 20 21  1  0  0  0  0
 21 22  1  0  0  0  0
 21 26  1  0  0  0  0
 22 23  1  0  0  0  0
 23 24  1  0  0  0  0
 23 29  1  1  0  0  0
 23 30  1  6  0  0  0
 24 25  1  0  0  0  0
 24 28  1  0  0  0  0
 25 26  1  0  0  0  0
 25 27  1  0  0  0  0
 30 31  1  0  0  0  0
 33 34  1  0  0  0  0
 34 35  1  0  0  0  0
 34 39  1  0  0  0  0
 35 36  1  0  0  0  0
 35 44  1  0  0  0  0
 36 37  1  0  0  0  0
 36 41  1  0  0  0  0
 37 38  1  0  0  0  0
 38 39  1  0  0  0  0
 38 40  1  0  0  0  0
 41 42  1  0  0  0  0
 41 43  1  0  0  0  0
M  END
>  <n>
133

>  <SMILES>
O1[C@H](CC)[C@](O)(C)[C@H](O)[C@@H](C)C(=O)[C@@H](C[C@](O)(C)[C@H](O[C@@H]2O[C@@H](C[C@H](N(C)C)[C@H]2O)C)[C@@H](C)[C@H](O[C@@H]2O[C@@H](C)[C@H](O)[C@](OC)(C2)C)[C@@H](C)C1=O)C

>  <IC50>
>983.1

>  <Class>
0

>  <NAME>
AZ184

>  <INCHI_KEY>
ULGZDMOVFRHVEP-RWJQBGPGSA-N

>  <Reference>
Mitigating the inhibition of human Bile Salt Export Pump by drugs_ opportunities provided by physicochemical property modulation,  in-silico modeling and structural modification_SI

$$$$
AZ185
  MOE2013           2D

 24 27  0  0  1  0  0  0  0  0999 V2000
    2.5980    0.0000    0.0000 C   0  0  0  0  0  0  0  0  0  0  0  0
    1.2990   -0.7500    0.0000 O   0  0  0  0  0  0  0  0  0  0  0  0
    0.0000    0.0000    0.0000 C   0  0  0  0  0  0  0  0  0  0  0  0
    0.0000    1.5000    0.0000 C   0  0  0  0  0  0  0  0  0  0  0  0
   -1.2990    2.2500    0.0000 C   0  0  0  0  0  0  0  0  0  0  0  0
   -2.5980    1.5000    0.0000 C   0  0  0  0  0  0  0  0  0  0  0  0
   -2.5980    0.0000    0.0000 C   0  0  0  0  0  0  0  0  0  0  0  0
   -1.2990   -0.7500    0.0000 C   0  0  0  0  0  0  0  0  0  0  0  0
   -3.8970   -0.7500    0.0000 C   0  0  0  0  0  0  0  0  0  0  0  0
   -5.1960    0.0000    0.0000 C   0  0  0  0  0  0  0  0  0  0  0  0
   -5.1960    1.5000    0.0000 C   0  0  0  0  0  0  0  0  0  0  0  0
   -3.8970    2.2500    0.0000 N   0  0  0  0  0  0  0  0  0  0  0  0
   -3.8970   -2.2500    0.0000 C   0  0  3  0  0  0  0  0  0  0  0  0
   -5.1960   -3.0000    0.0000 C   0  0  3  0  0  0  0  0  0  0  0  0
   -6.4950   -2.2500    0.0000 C   0  0  0  0  0  0  0  0  0  0  0  0
   -7.7940   -3.0000    0.0000 C   0  0  3  0  0  0  0  0  0  0  0  0
   -7.7940   -4.5000    0.0000 C   0  0  0  0  0  0  0  0  0  0  0  0
   -6.4950   -5.2500    0.0000 C   0  0  0  0  0  0  0  0  0  0  0  0
   -5.1960   -4.5000    0.0000 N   0  0  3  0  0  0  0  0  0  0  0  0
   -7.0970   -7.0350    0.0000 C   0  0  0  0  0  0  0  0  0  0  0  0
   -9.0390   -5.9140    0.0000 C   0  0  3  0  0  0  0  0  0  0  0  0
  -10.4620   -6.3880    0.0000 C   0  0  0  0  0  0  0  0  0  0  0  0
  -10.7630   -7.8580    0.0000 C   0  0  0  0  0  0  0  0  0  0  0  0
   -2.5980   -3.0000    0.0000 O   0  0  0  0  0  0  0  0  0  0  0  0
  1  2  1  0  0  0  0
  2  3  1  0  0  0  0
  3  4  1  0  0  0  0
  3  8  2  0  0  0  0
  4  5  2  0  0  0  0
  5  6  1  0  0  0  0
  6  7  1  0  0  0  0
  6 12  2  0  0  0  0
  7  8  1  0  0  0  0
  7  9  2  0  0  0  0
  9 10  1  0  0  0  0
  9 13  1  0  0  0  0
 10 11  2  0  0  0  0
 11 12  1  0  0  0  0
 13 14  1  0  0  0  0
 13 24  1  0  0  0  0
 14 15  1  0  0  0  0
 14 19  1  0  0  0  0
 15 16  1  0  0  0  0
 16 17  1  0  0  0  0
 16 21  1  0  0  0  0
 17 18  1  0  0  0  0
 18 19  1  0  0  0  0
 19 20  1  0  0  0  0
 20 21  1  0  0  0  0
 21 22  1  0  0  0  0
 22 23  2  0  0  0  0
M  END
>  <n>
134

>  <SMILES>
O(C)c1cc2c(nccc2[C@@H](O)C2N3CC(C(C2)CC3)C=C)cc1

>  <IC50>
98.83

>  <Class>
0

>  <NAME>
AZ185

>  <INCHI_KEY>
LOUPRKONTZGTKE-WGFDLZGGSA-N

>  <Reference>
Mitigating the inhibition of human Bile Salt Export Pump by drugs_ opportunities provided by physicochemical property modulation,  in-silico modeling and structural modification_SI

$$$$
AZ186
  MOE2013           2D

 34 37  0  0  1  0  0  0  0  0999 V2000
    2.5980   -3.0000    0.0000 C   0  0  0  0  0  0  0  0  0  0  0  0
    1.2990   -2.2500    0.0000 N   0  0  0  0  0  0  0  0  0  0  0  0
    0.0000   -3.0000    0.0000 C   0  0  0  0  0  0  0  0  0  0  0  0
    1.2990   -0.7500    0.0000 C   0  0  0  0  0  0  0  0  0  0  0  0
    0.0000    0.0000    0.0000 C   0  0  0  0  0  0  0  0  0  0  0  0
    0.0000    1.5000    0.0000 C   0  0  0  0  0  0  0  0  0  0  0  0
    1.2990    2.2500    0.0000 N   0  0  0  0  0  0  0  0  0  0  0  0
    2.5980    1.5000    0.0000 C   0  0  0  0  0  0  0  0  0  0  0  0
    2.5980    0.0000    0.0000 N   0  0  0  0  0  0  0  0  0  0  0  0
   -1.4270    1.9640    0.0000 N   0  0  0  0  0  0  0  0  0  0  0  0
   -2.3080    0.7500    0.0000 C   0  0  0  0  0  0  0  0  0  0  0  0
   -1.4270   -0.4640    0.0000 N   0  0  0  0  0  0  0  0  0  0  0  0
   -1.8900    3.3900    0.0000 C   0  0  3  0  0  0  0  0  0  0  0  0
   -1.0080    4.6040    0.0000 C   0  0  3  0  0  0  0  0  0  0  0  0
   -1.8900    5.8170    0.0000 C   0  0  3  0  0  0  0  0  0  0  0  0
   -3.3170    5.3540    0.0000 C   0  0  3  0  0  0  0  0  0  0  0  0
   -3.3170    3.8540    0.0000 O   0  0  0  0  0  0  0  0  0  0  0  0
   -4.5300    6.2350    0.0000 C   0  0  0  0  0  0  0  0  0  0  0  0
   -4.3730    7.7270    0.0000 O   0  0  0  0  0  0  0  0  0  0  0  0
   -1.4270    7.2440    0.0000 N   0  0  0  0  0  0  0  0  0  0  0  0
   -2.4300    8.3580    0.0000 C   0  0  0  0  0  0  0  0  0  0  0  0
   -3.8980    8.0470    0.0000 O   0  0  0  0  0  0  0  0  0  0  0  0
   -1.9670    9.7850    0.0000 C   0  0  3  0  0  0  0  0  0  0  0  0
   -2.9700   10.9000    0.0000 C   0  0  0  0  0  0  0  0  0  0  0  0
   -2.5070   12.3260    0.0000 C   0  0  0  0  0  0  0  0  0  0  0  0
   -1.0400   12.6380    0.0000 C   0  0  0  0  0  0  0  0  0  0  0  0
   -0.5760   14.0650    0.0000 C   0  0  0  0  0  0  0  0  0  0  0  0
   -1.5800   15.1800    0.0000 C   0  0  0  0  0  0  0  0  0  0  0  0
   -3.0470   14.8680    0.0000 C   0  0  0  0  0  0  0  0  0  0  0  0
   -3.5110   13.4410    0.0000 C   0  0  0  0  0  0  0  0  0  0  0  0
   -1.1160   16.6060    0.0000 O   0  0  0  0  0  0  0  0  0  0  0  0
   -2.1200   17.7210    0.0000 C   0  0  0  0  0  0  0  0  0  0  0  0
   -0.5000   10.0970    0.0000 N   0  0  0  0  0  0  0  0  0  0  0  0
    0.4920    4.6040    0.0000 O   0  0  0  0  0  0  0  0  0  0  0  0
  1  2  1  0  0  0  0
  2  3  1  0  0  0  0
  2  4  1  0  0  0  0
  4  5  1  0  0  0  0
  4  9  2  0  0  0  0
  5  6  2  0  0  0  0
  5 12  1  0  0  0  0
  6  7  1  0  0  0  0
  6 10  1  0  0  0  0
  7  8  2  0  0  0  0
  8  9  1  0  0  0  0
 10 11  1  0  0  0  0
 10 13  1  0  0  0  0
 11 12  2  0  0  0  0
 13 14  1  0  0  0  0
 13 17  1  0  0  0  0
 14 15  1  0  0  0  0
 14 34  1  0  0  0  0
 15 16  1  0  0  0  0
 15 20  1  0  0  0  0
 16 17  1  0  0  0  0
 16 18  1  0  0  0  0
 18 19  1  0  0  0  0
 20 21  1  0  0  0  0
 21 22  2  0  0  0  0
 21 23  1  0  0  0  0
 23 24  1  0  0  0  0
 23 33  1  0  0  0  0
 24 25  1  0  0  0  0
 25 26  1  0  0  0  0
 25 30  2  0  0  0  0
 26 27  2  0  0  0  0
 27 28  1  0  0  0  0
 28 29  2  0  0  0  0
 28 31  1  0  0  0  0
 29 30  1  0  0  0  0
 31 32  1  0  0  0  0
M  END
>  <n>
135

>  <SMILES>
O1[C@H](CO)[C@@H](NC(=O)C(N)Cc2ccc(OC)cc2)[C@@H](O)C1n1c2ncnc(N(C)C)c2nc1

>  <IC50>
>787.1

>  <Class>
0

>  <NAME>
AZ186

>  <INCHI_KEY>
RXWNCPJZOCPEPQ-JLRONHRDSA-N

>  <Reference>
Mitigating the inhibition of human Bile Salt Export Pump by drugs_ opportunities provided by physicochemical property modulation,  in-silico modeling and structural modification_SI

$$$$
AZ187
  MOE2013           2D

 26 29  0  0  1  0  0  0  0  0999 V2000
    1.3700    0.6100    0.0000 C   0  0  0  0  0  0  0  0  0  0  0  0
    0.0000    0.0000    0.0000 C   0  0  2  0  0  0  0  0  0  0  0  0
    0.0000    1.5000    0.0000 C   0  0  0  0  0  0  0  0  0  0  0  0
   -1.2990    2.2500    0.0000 C   0  0  3  0  0  0  0  0  0  0  0  0
   -2.5980    1.5000    0.0000 C   0  0  3  0  0  0  0  0  0  0  0  0
   -2.5980    0.0000    0.0000 C   0  0  3  0  0  0  0  0  0  0  0  0
   -1.2990   -0.7500    0.0000 C   0  0  3  0  0  0  0  0  0  0  0  0
   -0.9870   -2.2170    0.0000 C   0  0  0  0  0  0  0  0  0  0  0  0
    0.5050   -2.3740    0.0000 C   0  0  0  0  0  0  0  0  0  0  0  0
    1.1150   -1.0040    0.0000 C   0  0  2  0  0  0  0  0  0  0  0  0
    2.4140   -1.7540    0.0000 C   0  0  0  0  0  0  0  0  0  0  0  0
    3.7130   -1.0040    0.0000 O   0  0  0  0  0  0  0  0  0  0  0  0
    2.4140   -3.2540    0.0000 C   0  0  0  0  0  0  0  0  0  0  0  0
    3.7130   -4.0040    0.0000 O   0  0  0  0  0  0  0  0  0  0  0  0
    1.9960    0.2100    0.0000 O   0  0  0  0  0  0  0  0  0  0  0  0
   -3.8970   -0.7500    0.0000 C   0  0  0  0  0  0  0  0  0  0  0  0
   -5.1960    0.0000    0.0000 C   0  0  0  0  0  0  0  0  0  0  0  0
   -5.1960    1.5000    0.0000 C   0  0  0  0  0  0  0  0  0  0  0  0
   -6.4950    2.2500    0.0000 C   0  0  0  0  0  0  0  0  0  0  0  0
   -6.4950    3.7500    0.0000 C   0  0  0  0  0  0  0  0  0  0  0  0
   -7.7940    4.5000    0.0000 O   0  0  0  0  0  0  0  0  0  0  0  0
   -5.1960    4.5000    0.0000 C   0  0  0  0  0  0  0  0  0  0  0  0
   -3.8970    3.7500    0.0000 C   0  0  0  0  0  0  0  0  0  0  0  0
   -3.8970    2.2500    0.0000 C   0  0  2  0  0  0  0  0  0  0  0  0
   -2.5980    3.0000    0.0000 C   0  0  0  0  0  0  0  0  0  0  0  0
   -1.2990    3.7500    0.0000 O   0  0  0  0  0  0  0  0  0  0  0  0
  2  1  1  1  0  0  0
  2  3  1  0  0  0  0
  2  7  1  0  0  0  0
  2 10  1  0  0  0  0
  3  4  1  0  0  0  0
  4  5  1  0  0  0  0
  4 26  1  0  0  0  0
  5  6  1  0  0  0  0
  5 24  1  0  0  0  0
  6  7  1  0  0  0  0
  6 16  1  0  0  0  0
  7  8  1  0  0  0  0
  8  9  1  0  0  0  0
  9 10  1  0  0  0  0
 10 11  1  1  0  0  0
 10 15  1  6  0  0  0
 11 12  2  0  0  0  0
 11 13  1  0  0  0  0
 13 14  1  0  0  0  0
 16 17  1  0  0  0  0
 17 18  1  0  0  0  0
 18 19  2  0  0  0  0
 18 24  1  0  0  0  0
 19 20  1  0  0  0  0
 20 21  2  0  0  0  0
 20 22  1  0  0  0  0
 22 23  2  0  0  0  0
 23 24  1  0  0  0  0
 24 25  1  1  0  0  0
M  END
>  <n>
136

>  <SMILES>
O=C1C=C2CC[C@@H]3[C@@H]([C@]2(C=C1)C)[C@@H](O)C[C@]1([C@H]3CC[C@]1(O)C(=O)CO)C

>  <IC50>
91.47

>  <Class>
0

>  <NAME>
AZ187

>  <INCHI_KEY>
OIGNJSKKLXVSLS-VWUMJDOOSA-N

>  <Reference>
Mitigating the inhibition of human Bile Salt Export Pump by drugs_ opportunities provided by physicochemical property modulation,  in-silico modeling and structural modification_SI

$$$$
AZ188
  MOE2013           2D

 26 29  0  0  1  0  0  0  0  0999 V2000
    0.0000    3.0000    0.0000 C   0  0  0  0  0  0  0  0  0  0  0  0
    1.2990    2.2500    0.0000 C   0  0  2  0  0  0  0  0  0  0  0  0
    1.2990    3.7500    0.0000 C   0  0  0  0  0  0  0  0  0  0  0  0
    2.5980    4.5000    0.0000 C   0  0  0  0  0  0  0  0  0  0  0  0
    3.8970    3.7500    0.0000 C   0  0  0  0  0  0  0  0  0  0  0  0
    5.1960    4.5000    0.0000 O   0  0  0  0  0  0  0  0  0  0  0  0
    3.8970    2.2500    0.0000 C   0  0  0  0  0  0  0  0  0  0  0  0
    2.5980    1.5000    0.0000 C   0  0  0  0  0  0  0  0  0  0  0  0
    2.5980    0.0000    0.0000 C   0  0  0  0  0  0  0  0  0  0  0  0
    1.2990   -0.7500    0.0000 C   0  0  0  0  0  0  0  0  0  0  0  0
    0.0000    0.0000    0.0000 C   0  0  3  0  0  0  0  0  0  0  0  0
    0.0000    1.5000    0.0000 C   0  0  3  0  0  0  0  0  0  0  0  0
   -1.2990    2.2500    0.0000 C   0  0  3  0  0  0  0  0  0  0  0  0
   -2.5980    1.5000    0.0000 C   0  0  0  0  0  0  0  0  0  0  0  0
   -2.5980    0.0000    0.0000 C   0  0  1  0  0  0  0  0  0  0  0  0
   -1.2990   -0.7500    0.0000 C   0  0  3  0  0  0  0  0  0  0  0  0
   -1.6110   -2.2170    0.0000 C   0  0  0  0  0  0  0  0  0  0  0  0
   -3.1030   -2.3740    0.0000 C   0  0  0  0  0  0  0  0  0  0  0  0
   -3.7130   -1.0040    0.0000 C   0  0  2  0  0  0  0  0  0  0  0  0
   -4.5940    0.2100    0.0000 C   0  0  0  0  0  0  0  0  0  0  0  0
   -3.9840    1.5800    0.0000 O   0  0  0  0  0  0  0  0  0  0  0  0
   -6.0860    0.0530    0.0000 C   0  0  0  0  0  0  0  0  0  0  0  0
   -6.6960   -1.3170    0.0000 O   0  0  0  0  0  0  0  0  0  0  0  0
   -5.0120   -1.7540    0.0000 O   0  0  0  0  0  0  0  0  0  0  0  0
   -3.9680    0.6100    0.0000 C   0  0  0  0  0  0  0  0  0  0  0  0
   -1.2990    3.7500    0.0000 O   0  0  0  0  0  0  0  0  0  0  0  0
  2  1  1  6  0  0  0
  2  3  1  0  0  0  0
  2  8  1  0  0  0  0
  2 12  1  0  0  0  0
  3  4  1  0  0  0  0
  4  5  1  0  0  0  0
  5  6  2  0  0  0  0
  5  7  1  0  0  0  0
  7  8  2  0  0  0  0
  8  9  1  0  0  0  0
  9 10  1  0  0  0  0
 10 11  1  0  0  0  0
 11 12  1  0  0  0  0
 11 16  1  0  0  0  0
 12 13  1  0  0  0  0
 13 14  1  0  0  0  0
 13 26  1  0  0  0  0
 14 15  1  0  0  0  0
 15 16  1  0  0  0  0
 15 19  1  0  0  0  0
 15 25  1  6  0  0  0
 16 17  1  0  0  0  0
 17 18  1  0  0  0  0
 18 19  1  0  0  0  0
 19 20  1  6  0  0  0
 19 24  1  1  0  0  0
 20 21  2  0  0  0  0
 20 22  1  0  0  0  0
 22 23  1  0  0  0  0
M  END
>  <n>
137

>  <SMILES>
O=C1CC[C@@]2([C@@H]3[C@H]([C@@H]4CC[C@](O)(C(=O)CO)[C@]4(C[C@@H]3O)C)CCC2=C1)C

>  <IC50>
251.7

>  <Class>
0

>  <NAME>
AZ188

>  <INCHI_KEY>
JYGXADMDTFJGBT-VWUMJDOOSA-N

>  <Reference>
Mitigating the inhibition of human Bile Salt Export Pump by drugs_ opportunities provided by physicochemical property modulation,  in-silico modeling and structural modification_SI

$$$$
AZ189
  MOE2013           2D

 22 25  0  0  1  0  0  0  0  0999 V2000
    1.3700    0.6100    0.0000 C   0  0  0  0  0  0  0  0  0  0  0  0
    0.0000    0.0000    0.0000 C   0  0  2  0  0  0  0  0  0  0  0  0
    0.0000    1.5000    0.0000 C   0  0  0  0  0  0  0  0  0  0  0  0
   -1.2990    2.2500    0.0000 C   0  0  0  0  0  0  0  0  0  0  0  0
   -2.5980    1.5000    0.0000 C   0  0  3  0  0  0  0  0  0  0  0  0
   -3.8970    2.2500    0.0000 C   0  0  0  0  0  0  0  0  0  0  0  0
   -3.8970    3.7500    0.0000 C   0  0  0  0  0  0  0  0  0  0  0  0
   -5.1960    4.5000    0.0000 C   0  0  0  0  0  0  0  0  0  0  0  0
   -6.4950    3.7500    0.0000 C   0  0  0  0  0  0  0  0  0  0  0  0
   -6.4950    2.2500    0.0000 C   0  0  0  0  0  0  0  0  0  0  0  0
   -5.1960    1.5000    0.0000 C   0  0  0  0  0  0  0  0  0  0  0  0
   -5.1960    0.0000    0.0000 C   0  0  0  0  0  0  0  0  0  0  0  0
   -3.8970   -0.7500    0.0000 C   0  0  0  0  0  0  0  0  0  0  0  0
   -2.5980    0.0000    0.0000 C   0  0  3  0  0  0  0  0  0  0  0  0
   -1.2990   -0.7500    0.0000 C   0  0  3  0  0  0  0  0  0  0  0  0
   -0.9870   -2.2170    0.0000 C   0  0  0  0  0  0  0  0  0  0  0  0
    0.5050   -2.3740    0.0000 C   0  0  0  0  0  0  0  0  0  0  0  0
    1.1150   -1.0040    0.0000 C   0  0  1  0  0  0  0  0  0  0  0  0
    2.4140   -1.7540    0.0000 C   0  0  0  0  0  0  0  0  0  0  0  0
    3.7130   -2.5040    0.0000 C   0  0  0  0  0  0  0  0  0  0  0  0
    1.9960    0.2100    0.0000 O   0  0  0  0  0  0  0  0  0  0  0  0
   -7.7940    4.5000    0.0000 O   0  0  0  0  0  0  0  0  0  0  0  0
  2  1  1  1  0  0  0
  2  3  1  0  0  0  0
  2 15  1  0  0  0  0
  2 18  1  0  0  0  0
  3  4  1  0  0  0  0
  4  5  1  0  0  0  0
  5  6  1  0  0  0  0
  5 14  1  0  0  0  0
  6  7  1  0  0  0  0
  6 11  2  0  0  0  0
  7  8  2  0  0  0  0
  8  9  1  0  0  0  0
  9 10  2  0  0  0  0
  9 22  1  0  0  0  0
 10 11  1  0  0  0  0
 11 12  1  0  0  0  0
 12 13  1  0  0  0  0
 13 14  1  0  0  0  0
 14 15  1  0  0  0  0
 15 16  1  0  0  0  0
 16 17  1  0  0  0  0
 17 18  1  0  0  0  0
 18 19  1  6  0  0  0
 18 21  1  1  0  0  0
 19 20  3  0  0  0  0
M  END
>  <n>
138

>  <SMILES>
Oc1cc2CC[C@H]3[C@@H]4CC[C@@](O)(C#C)[C@]4(CC[C@@H]3c2cc1)C

>  <IC50>
<10

>  <Class>
1

>  <NAME>
AZ189

>  <INCHI_KEY>
BFPYWIDHMRZLRN-SLHNCBLASA-N

>  <Reference>
Mitigating the inhibition of human Bile Salt Export Pump by drugs_ opportunities provided by physicochemical property modulation,  in-silico modeling and structural modification_SI

$$$$
Physostigmine
  MOE2013           2D

 20 22  0  0  1  0  0  0  0  0999 V2000
    0.0000   -1.5000    0.0000 C   0  0  0  0  0  0  0  0  0  0  0  0
    0.0000    0.0000    0.0000 C   0  0  3  0  0  0  0  0  0  0  0  0
    1.4270   -0.4640    0.0000 C   0  0  0  0  0  0  0  0  0  0  0  0
    2.3080    0.7500    0.0000 C   0  0  0  0  0  0  0  0  0  0  0  0
    1.4270    1.9640    0.0000 N   0  0  3  0  0  0  0  0  0  0  0  0
    0.0000    1.5000    0.0000 C   0  0  3  0  0  0  0  0  0  0  0  0
   -1.4270    1.9640    0.0000 N   0  0  3  0  0  0  0  0  0  0  0  0
   -2.3080    0.7500    0.0000 C   0  0  0  0  0  0  0  0  0  0  0  0
   -1.4270   -0.4640    0.0000 C   0  0  0  0  0  0  0  0  0  0  0  0
   -2.0370   -1.8340    0.0000 C   0  0  0  0  0  0  0  0  0  0  0  0
   -3.5280   -1.9910    0.0000 C   0  0  0  0  0  0  0  0  0  0  0  0
   -4.4100   -0.7770    0.0000 C   0  0  0  0  0  0  0  0  0  0  0  0
   -3.8000    0.5930    0.0000 C   0  0  0  0  0  0  0  0  0  0  0  0
   -4.1390   -3.3610    0.0000 O   0  0  0  0  0  0  0  0  0  0  0  0
   -5.6300   -3.5180    0.0000 C   0  0  0  0  0  0  0  0  0  0  0  0
   -6.5120   -2.3040    0.0000 O   0  0  0  0  0  0  0  0  0  0  0  0
   -6.2400   -4.8880    0.0000 N   0  0  0  0  0  0  0  0  0  0  0  0
   -7.7320   -5.0450    0.0000 C   0  0  0  0  0  0  0  0  0  0  0  0
   -1.8900    3.3900    0.0000 C   0  0  0  0  0  0  0  0  0  0  0  0
    1.8900    3.3900    0.0000 C   0  0  0  0  0  0  0  0  0  0  0  0
  1  2  1  0  0  0  0
  2  3  1  0  0  0  0
  2  6  1  0  0  0  0
  2  9  1  0  0  0  0
  3  4  1  0  0  0  0
  4  5  1  0  0  0  0
  5  6  1  0  0  0  0
  5 20  1  0  0  0  0
  6  7  1  0  0  0  0
  7  8  1  0  0  0  0
  7 19  1  0  0  0  0
  8  9  1  0  0  0  0
  8 13  2  0  0  0  0
  9 10  2  0  0  0  0
 10 11  1  0  0  0  0
 11 12  2  0  0  0  0
 11 14  1  0  0  0  0
 12 13  1  0  0  0  0
 14 15  1  0  0  0  0
 15 16  2  0  0  0  0
 15 17  1  0  0  0  0
 17 18  1  0  0  0  0
M  END
>  <n>
139

>  <SMILES>
O(C(=O)NC)c1cc2c(N(C3N(CCC23C)C)C)cc1

>  <IC50>
>1000

>  <Class>
0

>  <NAME>
AZ19

>  <INCHI_KEY>
PIJVFDBKTWXHHD-UHFFFAOYSA-N

>  <Reference>
Mitigating, Dawson

$$$$
AZ192
  MOE2013           2D

 30 32  0  0  1  0  0  0  0  0999 V2000
    5.1960    0.0000    0.0000 C   0  0  0  0  0  0  0  0  0  0  0  0
    3.8970   -0.7500    0.0000 C   0  0  0  0  0  0  0  0  0  0  0  0
    2.5980    0.0000    0.0000 C   0  0  0  0  0  0  0  0  0  0  0  0
    1.2990   -0.7500    0.0000 C   0  0  0  0  0  0  0  0  0  0  0  0
    0.0000    0.0000    0.0000 N   0  0  0  0  0  0  0  0  0  0  0  0
    0.0000    1.5000    0.0000 C   0  0  3  0  0  0  0  0  0  0  0  0
   -1.5000    1.5000    0.0000 C   0  0  3  0  0  0  0  0  0  0  0  0
   -1.5000    0.0000    0.0000 C   0  0  0  0  0  0  0  0  0  0  0  0
   -2.5610   -1.0610    0.0000 O   0  0  0  0  0  0  0  0  0  0  0  0
   -2.5610    2.5610    0.0000 N   0  0  0  0  0  0  0  0  0  0  0  0
   -4.0100    2.1720    0.0000 C   0  0  0  0  0  0  0  0  0  0  0  0
   -4.3980    0.7240    0.0000 O   0  0  0  0  0  0  0  0  0  0  0  0
   -5.0700    3.2330    0.0000 C   0  0  0  0  0  0  0  0  0  0  0  0
   -6.5190    2.8450    0.0000 N   0  0  0  0  0  0  0  0  0  0  0  0
   -6.9070    1.3960    0.0000 O   0  0  0  0  0  0  0  0  0  0  0  0
   -8.3560    1.0080    0.0000 C   0  0  0  0  0  0  0  0  0  0  0  0
   -8.7440   -0.4410    0.0000 C   0  0  0  0  0  0  0  0  0  0  0  0
  -10.1930   -0.8290    0.0000 O   0  0  0  0  0  0  0  0  0  0  0  0
   -7.6840   -1.5020    0.0000 O   0  0  0  0  0  0  0  0  0  0  0  0
   -4.6820    4.6820    0.0000 C   0  0  0  0  0  0  0  0  0  0  0  0
   -3.2820    5.2200    0.0000 C   0  0  0  0  0  0  0  0  0  0  0  0
   -3.3600    6.7180    0.0000 S   0  0  0  0  0  0  0  0  0  0  0  0
   -4.8090    7.1060    0.0000 C   0  0  0  0  0  0  0  0  0  0  0  0
   -5.6260    5.8480    0.0000 N   0  0  0  0  0  0  0  0  0  0  0  0
   -5.3470    8.5060    0.0000 N   0  0  0  0  0  0  0  0  0  0  0  0
    1.2990    2.2500    0.0000 S   0  0  0  0  0  0  0  0  0  0  0  0
    2.5980    1.5000    0.0000 C   0  0  0  0  0  0  0  0  0  0  0  0
    1.2990   -2.2500    0.0000 C   0  0  0  0  0  0  0  0  0  0  0  0
    2.5980   -3.0000    0.0000 O   0  0  0  0  0  0  0  0  0  0  0  0
    0.0000   -3.0000    0.0000 O   0  0  0  0  0  0  0  0  0  0  0  0
  1  2  2  0  0  0  0
  2  3  1  0  0  0  0
  3  4  2  0  0  0  0
  3 27  1  0  0  0  0
  4  5  1  0  0  0  0
  4 28  1  0  0  0  0
  5  6  1  0  0  0  0
  5  8  1  0  0  0  0
  6  7  1  0  0  0  0
  6 26  1  0  0  0  0
  7  8  1  0  0  0  0
  7 10  1  0  0  0  0
  8  9  2  0  0  0  0
 10 11  1  0  0  0  0
 11 12  2  0  0  0  0
 11 13  1  0  0  0  0
 13 14  2  0  0  0  0
 13 20  1  0  0  0  0
 14 15  1  0  0  0  0
 15 16  1  0  0  0  0
 16 17  1  0  0  0  0
 17 18  2  0  0  0  0
 17 19  1  0  0  0  0
 20 21  2  0  0  0  0
 20 24  1  0  0  0  0
 21 22  1  0  0  0  0
 22 23  1  0  0  0  0
 23 24  2  0  0  0  0
 23 25  1  0  0  0  0
 26 27  1  0  0  0  0
 28 29  2  0  0  0  0
 28 30  1  0  0  0  0
M  END
>  <n>
142

>  <SMILES>
s1cc(nc1N)/C(=N/OCC(O)=O)/C(=O)N[C@H]1[C@H]2SCC(C=C)=C(N2C1=O)C(O)=O

>  <IC50>
>1000

>  <Class>
0

>  <NAME>
AZ192

>  <INCHI_KEY>
OKBVVJOGVLARMR-QSWIMTSFSA-N

>  <Reference>
Mitigating the inhibition of human Bile Salt Export Pump by drugs_ opportunities provided by physicochemical property modulation,  in-silico modeling and structural modification_SI

$$$$
AZ193
  MOE2013           2D

 15 16  0  0  0  0  0  0  0  0999 V2000
    1.2990   -2.2500    0.0000 C   0  0  0  0  0  0  0  0  0  0  0  0
    2.5980   -3.0000    0.0000 C   0  0  0  0  0  0  0  0  0  0  0  0
    3.8970   -2.2500    0.0000 N   0  0  0  0  0  0  0  0  0  0  0  0
    3.8970   -0.7500    0.0000 C   0  0  0  0  0  0  0  0  0  0  0  0
    5.1960    0.0000    0.0000 N   0  0  0  0  0  0  0  0  0  0  0  0
    2.5980    0.0000    0.0000 N   0  0  0  0  0  0  0  0  0  0  0  0
    1.2990   -0.7500    0.0000 C   0  0  0  0  0  0  0  0  0  0  0  0
    0.0000    0.0000    0.0000 N   0  0  0  0  0  0  0  0  0  0  0  0
    0.0000    1.5000    0.0000 C   0  0  0  0  0  0  0  0  0  0  0  0
   -1.2990    2.2500    0.0000 C   0  0  0  0  0  0  0  0  0  0  0  0
   -2.5980    1.5000    0.0000 C   0  0  0  0  0  0  0  0  0  0  0  0
   -2.5980    0.0000    0.0000 C   0  0  0  0  0  0  0  0  0  0  0  0
   -1.2990   -0.7500    0.0000 C   0  0  0  0  0  0  0  0  0  0  0  0
    5.1960   -3.0000    0.0000 O   0  0  0  0  0  0  0  0  0  0  0  0
    2.5980   -4.5000    0.0000 N   0  0  0  0  0  0  0  0  0  0  0  0
  1  2  2  0  0  0  0
  1  7  1  0  0  0  0
  2  3  1  0  0  0  0
  2 15  1  0  0  0  0
  3  4  1  0  0  0  0
  3 14  1  0  0  0  0
  4  5  2  0  0  0  0
  4  6  1  0  0  0  0
  6  7  2  0  0  0  0
  7  8  1  0  0  0  0
  8  9  1  0  0  0  0
  8 13  1  0  0  0  0
  9 10  1  0  0  0  0
 10 11  1  0  0  0  0
 11 12  1  0  0  0  0
 12 13  1  0  0  0  0
M  END
>  <n>
143

>  <SMILES>
ON1C(N)=CC(=NC1=N)N1CCCCC1

>  <IC50>
>1000

>  <Class>
0

>  <NAME>
AZ193

>  <INCHI_KEY>
UVDZBBDEEOJINW-UHFFFAOYSA-N

>  <Reference>
Mitigating the inhibition of human Bile Salt Export Pump by drugs_ opportunities provided by physicochemical property modulation,  in-silico modeling and structural modification_SI

$$$$
AZ194
  MOE2013           2D

 61 66  0  0  1  0  0  0  0  0999 V2000
    4.3440    1.9410    0.0000 C   0  0  0  0  0  0  0  0  0  0  0  0
    2.8450    1.8740    0.0000 C   0  0  0  0  0  0  0  0  0  0  0  0
    2.0910    0.3700    0.0000 C   0  0  0  0  0  0  0  0  0  0  0  0
    0.0000    0.0000    0.0000 C   0  0  0  0  0  0  0  0  0  0  0  0
    0.0000    1.5000    0.0000 C   0  0  0  0  0  0  0  0  0  0  0  0
   -0.3880    2.9490    0.0000 C   0  0  0  0  0  0  0  0  0  0  0  0
    1.0380    4.8000    0.0000 C   0  0  0  0  0  0  0  0  0  0  0  0
   -0.0410    6.2070    0.0000 O   0  0  0  0  0  0  0  0  0  0  0  0
   -2.1990    5.3090    0.0000 C   0  0  1  0  0  0  0  0  0  0  0  0
   -1.1380    4.2480    0.0000 C   0  0  0  0  0  0  0  0  0  0  0  0
    0.0520    5.1610    0.0000 O   0  0  0  0  0  0  0  0  0  0  0  0
   -3.4980    6.0590    0.0000 O   0  0  0  0  0  0  0  0  0  0  0  0
   -4.9470    6.4470    0.0000 C   0  0  0  0  0  0  0  0  0  0  0  0
   -6.4470    6.4470    0.0000 C   0  0  0  0  0  0  0  0  0  0  0  0
   -7.8960    6.0590    0.0000 C   0  0  3  0  0  0  0  0  0  0  0  0
   -9.1950    5.3090    0.0000 C   0  0  3  0  0  0  0  0  0  0  0  0
  -10.2550    4.2480    0.0000 C   0  0  3  0  0  0  0  0  0  0  0  0
  -11.0050    2.9490    0.0000 C   0  0  3  0  0  0  0  0  0  0  0  0
  -11.3940    1.5000    0.0000 C   0  0  3  0  0  0  0  0  0  0  0  0
  -11.3940    0.0000    0.0000 C   0  0  3  0  0  0  0  0  0  0  0  0
  -11.0050   -1.4490    0.0000 C   0  0  3  0  0  0  0  0  0  0  0  0
  -10.2550   -2.7480    0.0000 C   0  0  3  0  0  0  0  0  0  0  0  0
   -9.1950   -3.8090    0.0000 C   0  0  0  0  0  0  0  0  0  0  0  0
   -7.8960   -4.5590    0.0000 C   0  0  0  0  0  0  0  0  0  0  0  0
   -6.4470   -4.9470    0.0000 C   0  0  0  0  0  0  0  0  0  0  0  0
   -4.9470   -4.9470    0.0000 C   0  0  0  0  0  0  0  0  0  0  0  0
   -3.4980   -4.5590    0.0000 C   0  0  0  0  0  0  0  0  0  0  0  0
   -2.9240   -5.9440    0.0000 O   0  0  0  0  0  0  0  0  0  0  0  0
   -2.1990   -3.8090    0.0000 N   0  0  0  0  0  0  0  0  0  0  0  0
   -1.1380   -2.7480    0.0000 C   0  0  0  0  0  0  0  0  0  0  0  0
    1.8720   -2.3280    0.0000 C   0  0  0  0  0  0  0  0  0  0  0  0
    2.3970   -0.3690    0.0000 C   0  0  0  0  0  0  0  0  0  0  0  0
    3.9040   -0.6000    0.0000 N   0  0  0  0  0  0  0  0  0  0  0  0
    4.3640   -1.9460    0.0000 C   0  0  0  0  0  0  0  0  0  0  0  0
    3.2930   -2.8820    0.0000 N   0  0  0  0  0  0  0  0  0  0  0  0
    5.4250   -0.8850    0.0000 C   0  0  0  0  0  0  0  0  0  0  0  0
    6.8740   -1.2740    0.0000 C   0  0  0  0  0  0  0  0  0  0  0  0
    7.2620   -2.7220    0.0000 N   0  0  0  0  0  0  0  0  0  0  0  0
    6.2020   -3.7830    0.0000 C   0  0  0  0  0  0  0  0  0  0  0  0
    4.7530   -3.3950    0.0000 C   0  0  0  0  0  0  0  0  0  0  0  0
    8.7110   -3.1110    0.0000 C   0  0  0  0  0  0  0  0  0  0  0  0
    9.0990   -4.5600    0.0000 C   0  0  0  0  0  0  0  0  0  0  0  0
   10.5480   -4.9480    0.0000 C   0  0  0  0  0  0  0  0  0  0  0  0
    8.0390   -5.6200    0.0000 C   0  0  0  0  0  0  0  0  0  0  0  0
   -0.3880   -1.4490    0.0000 C   0  0  0  0  0  0  0  0  0  0  0  0
    0.9980   -2.0230    0.0000 O   0  0  0  0  0  0  0  0  0  0  0  0
   -4.7510   -6.4340    0.0000 C   0  0  0  0  0  0  0  0  0  0  0  0
  -11.4450   -3.6610    0.0000 C   0  0  0  0  0  0  0  0  0  0  0  0
  -12.3910   -2.0230    0.0000 O   0  0  0  0  0  0  0  0  0  0  0  0
  -12.8810   -0.1960    0.0000 C   0  0  0  0  0  0  0  0  0  0  0  0
  -12.8810    1.6960    0.0000 O   0  0  0  0  0  0  0  0  0  0  0  0
  -12.3910    3.5230    0.0000 C   0  0  0  0  0  0  0  0  0  0  0  0
  -11.4450    5.1610    0.0000 O   0  0  0  0  0  0  0  0  0  0  0  0
  -12.8310    4.5870    0.0000 C   0  0  0  0  0  0  0  0  0  0  0  0
  -14.0210    5.5000    0.0000 O   0  0  0  0  0  0  0  0  0  0  0  0
  -13.0270    3.1000    0.0000 C   0  0  0  0  0  0  0  0  0  0  0  0
  -10.1080    6.4990    0.0000 C   0  0  0  0  0  0  0  0  0  0  0  0
   -8.4700    7.4440    0.0000 O   0  0  0  0  0  0  0  0  0  0  0  0
   -9.9570    7.6400    0.0000 C   0  0  0  0  0  0  0  0  0  0  0  0
   -2.1020    6.8060    0.0000 C   0  0  0  0  0  0  0  0  0  0  0  0
    2.9880   -0.8320    0.0000 O   0  0  0  0  0  0  0  0  0  0  0  0
  1  2  1  0  0  0  0
  2  3  2  0  0  0  0
  2  7  1  0  0  0  0
  3  4  1  0  0  0  0
  3 61  1  0  0  0  0
  4  5  2  0  0  0  0
  4 45  1  0  0  0  0
  5  6  1  0  0  0  0
  5 32  1  0  0  0  0
  6  7  2  0  0  0  0
  6 10  1  0  0  0  0
  7  8  1  0  0  0  0
  8  9  1  0  0  0  0
  9 10  1  0  0  0  0
  9 12  1  0  0  0  0
  9 60  1  6  0  0  0
 10 11  2  0  0  0  0
 12 13  1  0  0  0  0
 13 14  2  0  0  0  0
 14 15  1  0  0  0  0
 15 16  1  0  0  0  0
 15 58  1  0  0  0  0
 16 17  1  0  0  0  0
 16 57  1  0  0  0  0
 17 18  1  0  0  0  0
 17 53  1  0  0  0  0
 18 19  1  0  0  0  0
 18 52  1  0  0  0  0
 19 20  1  0  0  0  0
 19 51  1  0  0  0  0
 20 21  1  0  0  0  0
 20 50  1  0  0  0  0
 21 22  1  0  0  0  0
 21 49  1  0  0  0  0
 22 23  1  0  0  0  0
 22 48  1  0  0  0  0
 23 24  2  0  0  0  0
 24 25  1  0  0  0  0
 25 26  2  0  0  0  0
 26 27  1  0  0  0  0
 26 47  1  0  0  0  0
 27 28  2  0  0  0  0
 27 29  1  0  0  0  0
 29 30  1  0  0  0  0
 30 31  2  0  0  0  0
 30 45  1  0  0  0  0
 31 32  1  0  0  0  0
 31 35  1  0  0  0  0
 32 33  2  0  0  0  0
 33 34  1  0  0  0  0
 34 35  1  0  0  0  0
 34 36  1  0  0  0  0
 34 40  1  0  0  0  0
 36 37  1  0  0  0  0
 37 38  1  0  0  0  0
 38 39  1  0  0  0  0
 38 41  1  0  0  0  0
 39 40  1  0  0  0  0
 41 42  1  0  0  0  0
 42 43  1  0  0  0  0
 42 44  1  0  0  0  0
 45 46  2  0  0  0  0
 53 54  1  0  0  0  0
 54 55  2  0  0  0  0
 54 56  1  0  0  0  0
 58 59  1  0  0  0  0
M  END
>  <n>
144

>  <SMILES>
O1c2c3c4c(c(O)c2C)C(=O)C(NC(=O)/C(=C\C=C\[C@H](C)[C@H](O)[C@@H](C)[C@@H](O)[C@@H](C)[C@H](OC(=O)C)[C@H](C)[C@@H](OC)\C=C\O[C@]1(C)C3=O)/C)=C1NC2(N=C14)CCN(CC2)CC(C)C

>  <IC50>
<10

>  <Class>
1

>  <NAME>
AZ194

>  <INCHI_KEY>
ATEBXHFBFRCZMA-VXTBVIBXSA-N

>  <Reference>
Mitigating the inhibition of human Bile Salt Export Pump by drugs_ opportunities provided by physicochemical property modulation,  in-silico modeling and structural modification_SI

$$$$
AZ195
  MOE2013           2D

 33 37  0  0  1  0  0  0  0  0999 V2000
    6.4950   -6.7500    0.0000 C   0  0  0  0  0  0  0  0  0  0  0  0
    6.4950   -5.2500    0.0000 C   0  0  0  0  0  0  0  0  0  0  0  0
    5.1960   -4.5000    0.0000 C   0  0  0  0  0  0  0  0  0  0  0  0
    3.8970   -5.2500    0.0000 C   0  0  0  0  0  0  0  0  0  0  0  0
    3.8970   -6.7500    0.0000 C   0  0  0  0  0  0  0  0  0  0  0  0
    5.1960   -7.5000    0.0000 C   0  0  0  0  0  0  0  0  0  0  0  0
    2.5980   -4.5000    0.0000 O   0  0  0  0  0  0  0  0  0  0  0  0
    2.5980   -3.0000    0.0000 C   0  0  0  0  0  0  0  0  0  0  0  0
    1.2990   -2.2500    0.0000 C   0  0  0  0  0  0  0  0  0  0  0  0
    1.2990   -0.7500    0.0000 C   0  0  0  0  0  0  0  0  0  0  0  0
    0.0000    0.0000    0.0000 N   0  3  0  0  0  0  0  0  0  0  0  0
    0.0000    1.5000    0.0000 C   0  0  0  0  0  0  0  0  0  0  0  0
   -1.2990    2.2500    0.0000 C   0  0  0  0  0  0  0  0  0  0  0  0
   -2.5980    1.5000    0.0000 C   0  0  0  0  0  0  0  0  0  0  0  0
   -0.6970    4.0350    0.0000 C   0  0  0  0  0  0  0  0  0  0  0  0
    1.2450    2.9140    0.0000 C   0  0  0  0  0  0  0  0  0  0  0  0
   -2.5980    0.0000    0.0000 C   0  0  3  0  0  0  0  0  0  0  0  0
   -1.2990   -0.7500    0.0000 C   0  0  0  0  0  0  0  0  0  0  0  0
   -3.8970   -0.7500    0.0000 O   0  0  0  0  0  0  0  0  0  0  0  0
   -5.1960    0.0000    0.0000 C   0  0  0  0  0  0  0  0  0  0  0  0
   -5.1960    1.5000    0.0000 O   0  0  0  0  0  0  0  0  0  0  0  0
   -6.4950   -0.7500    0.0000 C   0  0  0  0  0  0  0  0  0  0  0  0
   -7.7940    0.0000    0.0000 C   0  0  0  0  0  0  0  0  0  0  0  0
   -7.9510    1.4920    0.0000 C   0  0  0  0  0  0  0  0  0  0  0  0
   -9.4180    1.8040    0.0000 C   0  0  0  0  0  0  0  0  0  0  0  0
  -10.1680    0.5050    0.0000 C   0  0  0  0  0  0  0  0  0  0  0  0
   -9.1640   -0.6100    0.0000 S   0  0  0  0  0  0  0  0  0  0  0  0
   -7.4590   -1.8990    0.0000 C   0  0  0  0  0  0  0  0  0  0  0  0
   -8.9560   -1.7940    0.0000 C   0  0  0  0  0  0  0  0  0  0  0  0
   -9.5180   -3.1850    0.0000 C   0  0  0  0  0  0  0  0  0  0  0  0
   -8.3690   -4.1490    0.0000 C   0  0  0  0  0  0  0  0  0  0  0  0
   -7.0960   -3.3540    0.0000 S   0  0  0  0  0  0  0  0  0  0  0  0
   -5.5310   -1.8990    0.0000 O   0  0  0  0  0  0  0  0  0  0  0  0
  1  2  1  0  0  0  0
  1  6  2  0  0  0  0
  2  3  2  0  0  0  0
  3  4  1  0  0  0  0
  4  5  2  0  0  0  0
  4  7  1  0  0  0  0
  5  6  1  0  0  0  0
  7  8  1  0  0  0  0
  8  9  1  0  0  0  0
  9 10  1  0  0  0  0
 10 11  1  0  0  0  0
 11 12  1  0  0  0  0
 11 16  1  0  0  0  0
 11 18  1  0  0  0  0
 12 13  1  0  0  0  0
 13 14  1  0  0  0  0
 14 15  1  0  0  0  0
 14 17  1  0  0  0  0
 15 16  1  0  0  0  0
 17 18  1  0  0  0  0
 17 19  1  0  0  0  0
 19 20  1  0  0  0  0
 20 21  2  0  0  0  0
 20 22  1  0  0  0  0
 22 23  1  0  0  0  0
 22 28  1  0  0  0  0
 22 33  1  0  0  0  0
 23 24  2  0  0  0  0
 23 27  1  0  0  0  0
 24 25  1  0  0  0  0
 25 26  2  0  0  0  0
 26 27  1  0  0  0  0
 28 29  2  0  0  0  0
 28 32  1  0  0  0  0
 29 30  1  0  0  0  0
 30 31  2  0  0  0  0
 31 32  1  0  0  0  0
M  CHG  1  11   1
M  END
>  <n>
145

>  <SMILES>
s1cccc1C(O)(C(O[C@@H]1C2CC[N+](C1)(CC2)CCCOc1ccccc1)=O)c1sccc1

>  <IC50>
127.1

>  <Class>
0

>  <NAME>
AZ195

>  <INCHI_KEY>
ASMXXROZKSBQIH-VITNCHFBSA-N

>  <Reference>
Mitigating the inhibition of human Bile Salt Export Pump by drugs_ opportunities provided by physicochemical property modulation,  in-silico modeling and structural modification_SI

$$$$
AZ197
  MOE2013           2D

 26 27  0  0  1  0  0  0  0  0999 V2000
    4.6950    2.5130    0.0000 C   0  0  0  0  0  0  0  0  0  0  0  0
    5.0290    1.0500    0.0000 C   0  0  3  0  0  0  0  0  0  0  0  0
    3.9290    0.0300    0.0000 C   0  0  0  0  0  0  0  0  0  0  0  0
    4.2630   -1.4320    0.0000 O   0  0  0  0  0  0  0  0  0  0  0  0
    2.4960    0.4720    0.0000 N   0  0  0  0  0  0  0  0  0  0  0  0
    1.3960   -0.5480    0.0000 C   0  0  3  0  0  0  0  0  0  0  0  0
    0.0000    0.0000    0.0000 C   0  0  0  0  0  0  0  0  0  0  0  0
    0.0000    1.5000    0.0000 C   0  0  0  0  0  0  0  0  0  0  0  0
   -1.2990    2.2500    0.0000 C   0  0  0  0  0  0  0  0  0  0  0  0
   -2.5980    1.5000    0.0000 C   0  0  0  0  0  0  0  0  0  0  0  0
   -2.5980    0.0000    0.0000 C   0  0  0  0  0  0  0  0  0  0  0  0
   -1.2990   -0.7500    0.0000 C   0  0  0  0  0  0  0  0  0  0  0  0
   -1.5230   -2.2330    0.0000 C   0  0  0  0  0  0  0  0  0  0  0  0
   -0.5020   -3.3330    0.0000 C   0  0  0  0  0  0  0  0  0  0  0  0
    0.9940   -3.2210    0.0000 N   0  0  0  0  0  0  0  0  0  0  0  0
    1.8380   -1.9810    0.0000 C   0  0  0  0  0  0  0  0  0  0  0  0
    3.3220   -2.2050    0.0000 O   0  0  0  0  0  0  0  0  0  0  0  0
    1.7440   -4.5200    0.0000 C   0  0  0  0  0  0  0  0  0  0  0  0
    6.4620    0.6080    0.0000 N   0  0  0  0  0  0  0  0  0  0  0  0
    7.5620    1.6280    0.0000 C   0  0  0  0  0  0  0  0  0  0  0  0
    7.2280    3.0910    0.0000 O   0  0  0  0  0  0  0  0  0  0  0  0
    8.9950    1.1860    0.0000 C   0  0  3  0  0  0  0  0  0  0  0  0
   10.0950    2.2070    0.0000 C   0  0  0  0  0  0  0  0  0  0  0  0
   11.5280    1.7640    0.0000 C   0  0  0  0  0  0  0  0  0  0  0  0
    9.7610    3.6690    0.0000 C   0  0  0  0  0  0  0  0  0  0  0  0
    9.3290   -0.2760    0.0000 O   0  0  0  0  0  0  0  0  0  0  0  0
  1  2  1  0  0  0  0
  2  3  1  0  0  0  0
  2 19  1  0  0  0  0
  3  4  2  0  0  0  0
  3  5  1  0  0  0  0
  5  6  1  0  0  0  0
  6  7  1  0  0  0  0
  6 16  1  0  0  0  0
  7  8  1  0  0  0  0
  7 12  2  0  0  0  0
  8  9  2  0  0  0  0
  9 10  1  0  0  0  0
 10 11  2  0  0  0  0
 11 12  1  0  0  0  0
 12 13  1  0  0  0  0
 13 14  1  0  0  0  0
 14 15  1  0  0  0  0
 15 16  1  0  0  0  0
 15 18  1  0  0  0  0
 16 17  2  0  0  0  0
 19 20  1  0  0  0  0
 20 21  2  0  0  0  0
 20 22  1  0  0  0  0
 22 23  1  0  0  0  0
 22 26  1  0  0  0  0
 23 24  1  0  0  0  0
 23 25  1  0  0  0  0
M  END
>  <n>
147

>  <SMILES>
O=C1N(CCc2c(cccc2)[C@@H]1NC(=O)[C@@H](NC(=O)[C@@H](O)C(C)C)C)C

>  <IC50>
471.9

>  <Class>
0

>  <NAME>
AZ197

>  <INCHI_KEY>
PKXWXXPNHIWQHW-RCBQFDQVSA-N

>  <Reference>
Mitigating the inhibition of human Bile Salt Export Pump by drugs_ opportunities provided by physicochemical property modulation,  in-silico modeling and structural modification_SI

$$$$
AZ198
  MOE2013           2D

 34 37  0  0  0  0  0  0  0  0999 V2000
    4.0750    1.2400    0.0000 C   0  0  0  0  0  0  0  0  0  0  0  0
    2.5980    1.5000    0.0000 C   0  0  0  0  0  0  0  0  0  0  0  0
    2.5980    0.0000    0.0000 C   0  0  0  0  0  0  0  0  0  0  0  0
    3.8970   -0.7500    0.0000 O   0  0  0  0  0  0  0  0  0  0  0  0
    1.2990   -0.7500    0.0000 N   0  0  0  0  0  0  0  0  0  0  0  0
    0.0000    0.0000    0.0000 C   0  0  0  0  0  0  0  0  0  0  0  0
    0.0000    1.5000    0.0000 C   0  0  0  0  0  0  0  0  0  0  0  0
   -1.2990    2.2500    0.0000 C   0  0  0  0  0  0  0  0  0  0  0  0
   -2.5980    1.5000    0.0000 C   0  0  0  0  0  0  0  0  0  0  0  0
   -2.5980    0.0000    0.0000 C   0  0  0  0  0  0  0  0  0  0  0  0
   -1.2990   -0.7500    0.0000 N   0  0  0  0  0  0  0  0  0  0  0  0
   -3.8970   -0.7500    0.0000 N   0  0  0  0  0  0  0  0  0  0  0  0
   -5.1960    0.0000    0.0000 C   0  0  0  0  0  0  0  0  0  0  0  0
   -5.1960    1.5000    0.0000 C   0  0  0  0  0  0  0  0  0  0  0  0
   -6.4950    2.2500    0.0000 C   0  0  0  0  0  0  0  0  0  0  0  0
   -7.7940    1.5000    0.0000 N   0  0  0  0  0  0  0  0  0  0  0  0
   -7.7940    0.0000    0.0000 C   0  0  0  0  0  0  0  0  0  0  0  0
   -6.4950   -0.7500    0.0000 N   0  0  0  0  0  0  0  0  0  0  0  0
   -9.0930   -0.7500    0.0000 N   0  0  0  0  0  0  0  0  0  0  0  0
  -10.3920    0.0000    0.0000 C   0  0  0  0  0  0  0  0  0  0  0  0
  -10.3920    1.5000    0.0000 C   0  0  0  0  0  0  0  0  0  0  0  0
  -11.6910    2.2500    0.0000 C   0  0  0  0  0  0  0  0  0  0  0  0
  -12.9900    1.5000    0.0000 C   0  0  0  0  0  0  0  0  0  0  0  0
  -12.9900    0.0000    0.0000 C   0  0  0  0  0  0  0  0  0  0  0  0
  -11.6910   -0.7500    0.0000 C   0  0  0  0  0  0  0  0  0  0  0  0
  -14.2890   -0.7500    0.0000 O   0  0  0  0  0  0  0  0  0  0  0  0
  -15.5880    0.0000    0.0000 C   0  0  0  0  0  0  0  0  0  0  0  0
  -14.2890    2.2500    0.0000 O   0  0  0  0  0  0  0  0  0  0  0  0
  -15.5880    1.5000    0.0000 C   0  0  0  0  0  0  0  0  0  0  0  0
  -11.6910    3.7500    0.0000 O   0  0  0  0  0  0  0  0  0  0  0  0
  -12.9900    4.5000    0.0000 C   0  0  0  0  0  0  0  0  0  0  0  0
   -3.8970    2.2500    0.0000 F   0  0  0  0  0  0  0  0  0  0  0  0
    1.2990    2.2500    0.0000 O   0  0  0  0  0  0  0  0  0  0  0  0
    3.1110    2.9100    0.0000 C   0  0  0  0  0  0  0  0  0  0  0  0
  1  2  1  0  0  0  0
  2  3  1  0  0  0  0
  2 33  1  0  0  0  0
  2 34  1  0  0  0  0
  3  4  2  0  0  0  0
  3  5  1  0  0  0  0
  5  6  1  0  0  0  0
  6  7  1  0  0  0  0
  6 11  2  0  0  0  0
  7  8  2  0  0  0  0
  7 33  1  0  0  0  0
  8  9  1  0  0  0  0
  9 10  2  0  0  0  0
 10 11  1  0  0  0  0
 10 12  1  0  0  0  0
 12 13  1  0  0  0  0
 13 14  1  0  0  0  0
 13 18  2  0  0  0  0
 14 15  2  0  0  0  0
 14 32  1  0  0  0  0
 15 16  1  0  0  0  0
 16 17  2  0  0  0  0
 17 18  1  0  0  0  0
 17 19  1  0  0  0  0
 19 20  1  0  0  0  0
 20 21  1  0  0  0  0
 20 25  2  0  0  0  0
 21 22  2  0  0  0  0
 22 23  1  0  0  0  0
 22 30  1  0  0  0  0
 23 24  2  0  0  0  0
 23 28  1  0  0  0  0
 24 25  1  0  0  0  0
 24 26  1  0  0  0  0
 26 27  1  0  0  0  0
 28 29  1  0  0  0  0
 30 31  1  0  0  0  0
M  END
>  <n>
148

>  <SMILES>
Fc1cnc(nc1Nc1nc2NC(=O)C(Oc2cc1)(C)C)Nc1cc(OC)c(OC)c(OC)c1

>  <IC50>
196.6

>  <Class>
0

>  <NAME>
AZ198

>  <INCHI_KEY>
NHHQJBCNYHBUSI-UHFFFAOYSA-N

>  <Reference>
Mitigating the inhibition of human Bile Salt Export Pump by drugs_ opportunities provided by physicochemical property modulation,  in-silico modeling and structural modification_SI

$$$$
AZ2
  MOE2013           2D

 10 10  0  0  0  0  0  0  0  0999 V2000
    0.0000    0.0000    0.0000 C   0  0  0  0  0  0  0  0  0  0  0  0
    0.0000    1.5000    0.0000 C   0  0  0  0  0  0  0  0  0  0  0  0
   -1.2990    2.2500    0.0000 C   0  0  0  0  0  0  0  0  0  0  0  0
   -2.5980    1.5000    0.0000 C   0  0  0  0  0  0  0  0  0  0  0  0
   -2.5980    0.0000    0.0000 C   0  0  0  0  0  0  0  0  0  0  0  0
   -1.2990   -0.7500    0.0000 C   0  0  0  0  0  0  0  0  0  0  0  0
   -3.8970   -0.7500    0.0000 C   0  0  0  0  0  0  0  0  0  0  0  0
   -3.8970   -2.2500    0.0000 O   0  0  0  0  0  0  0  0  0  0  0  0
   -5.1960    0.0000    0.0000 O   0  0  0  0  0  0  0  0  0  0  0  0
   -3.8970    2.2500    0.0000 S   0  0  0  0  0  0  0  0  0  0  0  0
  1  2  1  0  0  0  0
  1  6  2  0  0  0  0
  2  3  2  0  0  0  0
  3  4  1  0  0  0  0
  4  5  2  0  0  0  0
  4 10  1  0  0  0  0
  5  6  1  0  0  0  0
  5  7  1  0  0  0  0
  7  8  2  0  0  0  0
  7  9  1  0  0  0  0
M  END
>  <n>
150

>  <SMILES>
Sc1ccccc1C(O)=O

>  <IC50>
>1000

>  <Class>
0

>  <NAME>
AZ2

>  <INCHI_KEY>
NBOMNTLFRHMDEZ-UHFFFAOYSA-N

>  <Reference>
Mitigating the inhibition of human Bile Salt Export Pump by drugs_ opportunities provided by physicochemical property modulation,  in-silico modeling and structural modification_SI

$$$$
AZ20
  MOE2013           2D

 52 54  0  0  1  0  0  0  0  0999 V2000
   -1.0930  -11.3600    0.0000 C   0  0  0  0  0  0  0  0  0  0  0  0
   -1.7030   -9.9890    0.0000 C   0  0  0  0  0  0  0  0  0  0  0  0
   -0.8210   -8.7760    0.0000 C   0  0  3  0  0  0  0  0  0  0  0  0
    0.5490   -9.3860    0.0000 C   0  0  1  0  0  0  0  0  0  0  0  0
    2.0490   -9.3860    0.0000 C   0  0  3  0  0  0  0  0  0  0  0  0
    3.4190   -8.7760    0.0000 C   0  0  3  0  0  0  0  0  0  0  0  0
    4.4230   -7.6610    0.0000 N   0  0  3  0  0  0  0  0  0  0  0  0
    4.8870   -6.2340    0.0000 C   0  0  0  0  0  0  0  0  0  0  0  0
    4.7300   -4.7430    0.0000 C   0  0  3  0  0  0  0  0  0  0  0  0
    3.9800   -3.4440    0.0000 C   0  0  0  0  0  0  0  0  0  0  0  0
    2.7660   -2.5620    0.0000 C   0  0  1  0  0  0  0  0  0  0  0  0
    1.2990   -2.2500    0.0000 C   0  0  3  0  0  0  0  0  0  0  0  0
   -0.1680   -2.5620    0.0000 C   0  0  3  0  0  0  0  0  0  0  0  0
   -1.3820   -3.4440    0.0000 C   0  0  3  0  0  0  0  0  0  0  0  0
   -2.1320   -4.7430    0.0000 C   0  0  3  0  0  0  0  0  0  0  0  0
   -2.2880   -6.2340    0.0000 C   0  0  0  0  0  0  0  0  0  0  0  0
   -3.7800   -6.3910    0.0000 O   0  0  0  0  0  0  0  0  0  0  0  0
   -1.8250   -7.6610    0.0000 O   0  0  0  0  0  0  0  0  0  0  0  0
   -3.5580   -4.2790    0.0000 C   0  0  0  0  0  0  0  0  0  0  0  0
   -2.4960   -2.4400    0.0000 O   0  0  0  0  0  0  0  0  0  0  0  0
   -3.9230   -2.9030    0.0000 C   0  0  3  0  0  0  0  0  0  0  0  0
   -5.0380   -1.9000    0.0000 C   0  0  0  0  0  0  0  0  0  0  0  0
   -6.4640   -2.3630    0.0000 C   0  0  1  0  0  0  0  0  0  0  0  0
   -6.7760   -3.8300    0.0000 C   0  0  3  0  0  0  0  0  0  0  0  0
   -5.6620   -4.8340    0.0000 C   0  0  3  0  0  0  0  0  0  0  0  0
   -4.2350   -4.3710    0.0000 O   0  0  0  0  0  0  0  0  0  0  0  0
   -5.9730   -6.3010    0.0000 C   0  0  0  0  0  0  0  0  0  0  0  0
   -8.2030   -4.2940    0.0000 O   0  0  0  0  0  0  0  0  0  0  0  0
   -6.6730   -0.8780    0.0000 C   0  0  0  0  0  0  0  0  0  0  0  0
   -7.9630   -2.3110    0.0000 O   0  0  0  0  0  0  0  0  0  0  0  0
   -8.6680   -0.9860    0.0000 C   0  0  0  0  0  0  0  0  0  0  0  0
   -0.7780   -1.1920    0.0000 C   0  0  0  0  0  0  0  0  0  0  0  0
    1.2990   -0.7500    0.0000 O   0  0  0  0  0  0  0  0  0  0  0  0
    0.0000    0.0000    0.0000 C   0  0  3  0  0  0  0  0  0  0  0  0
    0.0000    1.5000    0.0000 C   0  0  3  0  0  0  0  0  0  0  0  0
   -1.2990    2.2500    0.0000 C   0  0  3  0  0  0  0  0  0  0  0  0
   -2.5980    1.5000    0.0000 C   0  0  0  0  0  0  0  0  0  0  0  0
   -2.5980    0.0000    0.0000 C   0  0  3  0  0  0  0  0  0  0  0  0
   -1.2990   -0.7500    0.0000 O   0  0  0  0  0  0  0  0  0  0  0  0
   -3.8970   -0.7500    0.0000 C   0  0  0  0  0  0  0  0  0  0  0  0
   -1.2990    3.7500    0.0000 N   0  0  0  0  0  0  0  0  0  0  0  0
   -2.5980    4.5000    0.0000 C   0  0  0  0  0  0  0  0  0  0  0  0
    0.0000    4.5000    0.0000 C   0  0  0  0  0  0  0  0  0  0  0  0
    1.2990    2.2500    0.0000 O   0  0  0  0  0  0  0  0  0  0  0  0
    4.0380   -1.7670    0.0000 C   0  0  0  0  0  0  0  0  0  0  0  0
    2.5060   -1.0850    0.0000 O   0  0  0  0  0  0  0  0  0  0  0  0
    6.1560   -4.2790    0.0000 C   0  0  0  0  0  0  0  0  0  0  0  0
    5.7220   -8.4110    0.0000 C   0  0  0  0  0  0  0  0  0  0  0  0
    4.3010   -9.9890    0.0000 C   0  0  0  0  0  0  0  0  0  0  0  0
    2.3610  -10.8530    0.0000 O   0  0  0  0  0  0  0  0  0  0  0  0
   -0.5300  -10.4280    0.0000 C   0  0  0  0  0  0  0  0  0  0  0  0
    1.1110  -10.7760    0.0000 O   0  0  0  0  0  0  0  0  0  0  0  0
  1  2  1  0  0  0  0
  2  3  1  0  0  0  0
  3  4  1  0  0  0  0
  3 18  1  0  0  0  0
  4  5  1  0  0  0  0
  4 51  1  1  0  0  0
  4 52  1  6  0  0  0
  5  6  1  0  0  0  0
  5 50  1  0  0  0  0
  6  7  1  0  0  0  0
  6 49  1  0  0  0  0
  7  8  1  0  0  0  0
  7 48  1  0  0  0  0
  8  9  1  0  0  0  0
  9 10  1  0  0  0  0
  9 47  1  0  0  0  0
 10 11  1  0  0  0  0
 11 12  1  0  0  0  0
 11 45  1  1  0  0  0
 11 46  1  6  0  0  0
 12 13  1  0  0  0  0
 12 33  1  0  0  0  0
 13 14  1  0  0  0  0
 13 32  1  0  0  0  0
 14 15  1  0  0  0  0
 14 20  1  0  0  0  0
 15 16  1  0  0  0  0
 15 19  1  0  0  0  0
 16 17  2  0  0  0  0
 16 18  1  0  0  0  0
 20 21  1  0  0  0  0
 21 22  1  0  0  0  0
 21 26  1  0  0  0  0
 22 23  1  0  0  0  0
 23 24  1  0  0  0  0
 23 29  1  1  0  0  0
 23 30  1  6  0  0  0
 24 25  1  0  0  0  0
 24 28  1  0  0  0  0
 25 26  1  0  0  0  0
 25 27  1  0  0  0  0
 30 31  1  0  0  0  0
 33 34  1  0  0  0  0
 34 35  1  0  0  0  0
 34 39  1  0  0  0  0
 35 36  1  0  0  0  0
 35 44  1  0  0  0  0
 36 37  1  0  0  0  0
 36 41  1  0  0  0  0
 37 38  1  0  0  0  0
 38 39  1  0  0  0  0
 38 40  1  0  0  0  0
 41 42  1  0  0  0  0
 41 43  1  0  0  0  0
M  END
>  <n>
151

>  <SMILES>
O1[C@H](CC)[C@](O)(C)[C@H](O)[C@H](N(C[C@@H](C[C@](O)(C)[C@H](O[C@@H]2O[C@@H](C[C@H](N(C)C)[C@H]2O)C)[C@@H](C)[C@H](O[C@@H]2O[C@@H](C)[C@H](O)[C@](OC)(C2)C)[C@@H](C)C1=O)C)C)C

>  <IC50>
>1000

>  <Class>
0

>  <NAME>
AZ20

>  <INCHI_KEY>
MQTOSJVFKKJCRP-BICOPXKESA-N

>  <Reference>
Mitigating the inhibition of human Bile Salt Export Pump by drugs_ opportunities provided by physicochemical property modulation,  in-silico modeling and structural modification_SI

$$$$
AZ200
  MOE2013           2D

 35 39  0  0  0  0  0  0  0  0999 V2000
   -0.3140   -2.9840    0.0000 C   0  0  0  0  0  0  0  0  0  0  0  0
    1.0570   -2.3740    0.0000 C   0  0  0  0  0  0  0  0  0  0  0  0
    2.2700   -3.2550    0.0000 C   0  0  0  0  0  0  0  0  0  0  0  0
    3.6410   -2.6450    0.0000 C   0  0  0  0  0  0  0  0  0  0  0  0
    3.7970   -1.1530    0.0000 C   0  0  0  0  0  0  0  0  0  0  0  0
    2.5840   -0.2720    0.0000 C   0  0  0  0  0  0  0  0  0  0  0  0
    1.2140   -0.8820    0.0000 C   0  0  0  0  0  0  0  0  0  0  0  0
    0.0000    0.0000    0.0000 C   0  0  0  0  0  0  0  0  0  0  0  0
    0.0000    1.5000    0.0000 N   0  0  0  0  0  0  0  0  0  0  0  0
   -1.4270    1.9640    0.0000 C   0  0  0  0  0  0  0  0  0  0  0  0
   -2.0370    3.3340    0.0000 C   0  0  0  0  0  0  0  0  0  0  0  0
   -3.5280    3.4910    0.0000 C   0  0  0  0  0  0  0  0  0  0  0  0
   -4.4100    2.2770    0.0000 C   0  0  0  0  0  0  0  0  0  0  0  0
   -3.8000    0.9070    0.0000 C   0  0  0  0  0  0  0  0  0  0  0  0
   -2.3080    0.7500    0.0000 C   0  0  0  0  0  0  0  0  0  0  0  0
   -1.4270   -0.4640    0.0000 N   0  0  0  0  0  0  0  0  0  0  0  0
   -4.1390    4.8610    0.0000 C   0  0  0  0  0  0  0  0  0  0  0  0
   -3.3890    6.1600    0.0000 N   0  0  0  0  0  0  0  0  0  0  0  0
   -4.3920    7.2750    0.0000 N   0  0  0  0  0  0  0  0  0  0  0  0
   -5.7630    6.6650    0.0000 C   0  0  0  0  0  0  0  0  0  0  0  0
   -5.6060    5.1730    0.0000 O   0  0  0  0  0  0  0  0  0  0  0  0
   -7.0620    7.4150    0.0000 N   0  0  0  0  0  0  0  0  0  0  0  0
   -7.0620    8.9150    0.0000 C   0  0  0  0  0  0  0  0  0  0  0  0
   -5.7630    9.6650    0.0000 C   0  0  0  0  0  0  0  0  0  0  0  0
   -5.7630   11.1650    0.0000 C   0  0  0  0  0  0  0  0  0  0  0  0
   -7.0620   11.9150    0.0000 C   0  0  0  0  0  0  0  0  0  0  0  0
   -8.3610   11.1650    0.0000 C   0  0  0  0  0  0  0  0  0  0  0  0
   -8.3610    9.6650    0.0000 C   0  0  0  0  0  0  0  0  0  0  0  0
   -9.6600   11.9150    0.0000 Cl  0  0  0  0  0  0  0  0  0  0  0  0
    2.7410    1.2200    0.0000 C   0  0  0  0  0  0  0  0  0  0  0  0
    4.8540   -3.5270    0.0000 C   0  0  0  0  0  0  0  0  0  0  0  0
    4.6970   -5.0180    0.0000 C   0  0  0  0  0  0  0  0  0  0  0  0
    5.9110   -5.9000    0.0000 C   0  0  0  0  0  0  0  0  0  0  0  0
    5.7540   -7.3920    0.0000 O   0  0  0  0  0  0  0  0  0  0  0  0
    7.2810   -5.2900    0.0000 O   0  0  0  0  0  0  0  0  0  0  0  0
  1  2  1  0  0  0  0
  2  3  1  0  0  0  0
  2  7  2  0  0  0  0
  3  4  2  0  0  0  0
  4  5  1  0  0  0  0
  4 31  1  0  0  0  0
  5  6  2  0  0  0  0
  6  7  1  0  0  0  0
  6 30  1  0  0  0  0
  7  8  1  0  0  0  0
  8  9  1  0  0  0  0
  8 16  2  0  0  0  0
  9 10  1  0  0  0  0
 10 11  1  0  0  0  0
 10 15  2  0  0  0  0
 11 12  2  0  0  0  0
 12 13  1  0  0  0  0
 12 17  1  0  0  0  0
 13 14  2  0  0  0  0
 14 15  1  0  0  0  0
 15 16  1  0  0  0  0
 17 18  2  0  0  0  0
 17 21  1  0  0  0  0
 18 19  1  0  0  0  0
 19 20  2  0  0  0  0
 20 21  1  0  0  0  0
 20 22  1  0  0  0  0
 22 23  1  0  0  0  0
 23 24  1  0  0  0  0
 23 28  2  0  0  0  0
 24 25  2  0  0  0  0
 25 26  1  0  0  0  0
 26 27  2  0  0  0  0
 27 28  1  0  0  0  0
 27 29  1  0  0  0  0
 31 32  1  0  0  0  0
 32 33  1  0  0  0  0
 33 34  2  0  0  0  0
 33 35  1  0  0  0  0
M  END
>  <n>
152

>  <SMILES>
Clc1cc(Nc2oc(nn2)-c2cc3[nH]c(nc3cc2)-c2c(cc(cc2C)CCC(O)=O)C)ccc1

>  <IC50>
<10

>  <Class>
1

>  <NAME>
AZ200

>  <INCHI_KEY>
LMSZAVQIIWOBAS-UHFFFAOYSA-N

>  <Reference>
Mitigating the inhibition of human Bile Salt Export Pump by drugs_ opportunities provided by physicochemical property modulation,  in-silico modeling and structural modification_SI

$$$$
AZ201
  MOE2013           2D

 21 23  0  0  0  0  0  0  0  0999 V2000
   -6.4950   -2.2500    0.0000 C   0  0  0  0  0  0  0  0  0  0  0  0
   -5.1960   -1.5000    0.0000 O   0  0  0  0  0  0  0  0  0  0  0  0
   -3.8970   -2.2500    0.0000 C   0  0  0  0  0  0  0  0  0  0  0  0
   -3.8970   -3.7500    0.0000 C   0  0  0  0  0  0  0  0  0  0  0  0
   -2.5980   -4.5000    0.0000 C   0  0  0  0  0  0  0  0  0  0  0  0
   -1.2990   -3.7500    0.0000 C   0  0  0  0  0  0  0  0  0  0  0  0
   -1.2990   -2.2500    0.0000 C   0  0  0  0  0  0  0  0  0  0  0  0
   -2.5980   -1.5000    0.0000 C   0  0  0  0  0  0  0  0  0  0  0  0
    0.0000   -1.5000    0.0000 N   0  0  0  0  0  0  0  0  0  0  0  0
    1.2990   -2.2500    0.0000 C   0  0  0  0  0  0  0  0  0  0  0  0
    2.5980   -1.5000    0.0000 N   0  0  0  0  0  0  0  0  0  0  0  0
    2.5980    0.0000    0.0000 C   0  0  0  0  0  0  0  0  0  0  0  0
    1.2990    0.7500    0.0000 N   0  0  0  0  0  0  0  0  0  0  0  0
    0.0000    0.0000    0.0000 C   0  0  0  0  0  0  0  0  0  0  0  0
    0.0000    1.5000    0.0000 C   0  0  0  0  0  0  0  0  0  0  0  0
   -1.2990    2.2500    0.0000 C   0  0  0  0  0  0  0  0  0  0  0  0
   -2.5980    1.5000    0.0000 C   0  0  0  0  0  0  0  0  0  0  0  0
   -2.5980    0.0000    0.0000 C   0  0  0  0  0  0  0  0  0  0  0  0
   -1.2990   -0.7500    0.0000 C   0  0  0  0  0  0  0  0  0  0  0  0
    3.8970    0.7500    0.0000 N   0  0  0  0  0  0  0  0  0  0  0  0
    1.2990   -3.7500    0.0000 N   0  0  0  0  0  0  0  0  0  0  0  0
  1  2  1  0  0  0  0
  2  3  1  0  0  0  0
  3  4  1  0  0  0  0
  3  8  2  0  0  0  0
  4  5  2  0  0  0  0
  5  6  1  0  0  0  0
  6  7  2  0  0  0  0
  7  8  1  0  0  0  0
  7  9  1  0  0  0  0
  9 10  1  0  0  0  0
  9 14  1  0  0  0  0
 10 11  2  0  0  0  0
 10 21  1  0  0  0  0
 11 12  1  0  0  0  0
 12 13  2  0  0  0  0
 12 20  1  0  0  0  0
 13 14  1  0  0  0  0
 14 15  1  0  0  0  0
 14 19  1  0  0  0  0
 15 16  1  0  0  0  0
 16 17  1  0  0  0  0
 17 18  1  0  0  0  0
 18 19  1  0  0  0  0
M  END
>  <n>
153

>  <SMILES>
O(C)c1cc(N2C3(N=C(N=C2N)N)CCCCC3)ccc1

>  <IC50>
>1000

>  <Class>
0

>  <NAME>
AZ201

>  <INCHI_KEY>
WJKIDBQCXNLTLB-UHFFFAOYSA-N

>  <Reference>
Mitigating the inhibition of human Bile Salt Export Pump by drugs_ opportunities provided by physicochemical property modulation,  in-silico modeling and structural modification_SI

$$$$
AZ21
  MOE2013           2D

 30 32  0  0  1  0  0  0  0  0999 V2000
    0.0000    0.0000    0.0000 C   0  0  0  0  0  0  0  0  0  0  0  0
    0.0000    1.5000    0.0000 C   0  0  0  0  0  0  0  0  0  0  0  0
   -1.2990    2.2500    0.0000 C   0  0  0  0  0  0  0  0  0  0  0  0
   -2.5980    1.5000    0.0000 C   0  0  0  0  0  0  0  0  0  0  0  0
   -2.5980    0.0000    0.0000 C   0  0  0  0  0  0  0  0  0  0  0  0
   -1.2990   -0.7500    0.0000 C   0  0  0  0  0  0  0  0  0  0  0  0
   -3.8970    2.2500    0.0000 C   0  0  0  0  0  0  0  0  0  0  0  0
   -5.1960    1.5000    0.0000 C   0  0  0  0  0  0  0  0  0  0  0  0
   -6.4950    2.2500    0.0000 C   0  0  3  0  0  0  0  0  0  0  0  0
   -7.7940    1.5000    0.0000 C   0  0  0  0  0  0  0  0  0  0  0  0
   -9.0930    2.2500    0.0000 S   0  0  0  0  0  0  0  0  0  0  0  0
   -8.1290    3.3990    0.0000 O   0  0  0  0  0  0  0  0  0  0  0  0
  -10.0570    3.3990    0.0000 O   0  0  0  0  0  0  0  0  0  0  0  0
  -10.3920    1.5000    0.0000 N   0  0  0  0  0  0  0  0  0  0  0  0
  -11.6910    2.2500    0.0000 C   0  0  0  0  0  0  0  0  0  0  0  0
  -12.9900    1.5000    0.0000 C   0  0  0  0  0  0  0  0  0  0  0  0
  -12.9900    0.0000    0.0000 N   0  0  0  0  0  0  0  0  0  0  0  0
  -11.6910   -0.7500    0.0000 C   0  0  0  0  0  0  0  0  0  0  0  0
  -10.3920    0.0000    0.0000 C   0  0  0  0  0  0  0  0  0  0  0  0
  -14.2890   -0.7500    0.0000 C   0  0  0  0  0  0  0  0  0  0  0  0
  -15.5880    0.0000    0.0000 C   0  0  0  0  0  0  0  0  0  0  0  0
  -16.8880   -0.7500    0.0000 C   0  0  0  0  0  0  0  0  0  0  0  0
  -16.8880   -2.2500    0.0000 C   0  0  0  0  0  0  0  0  0  0  0  0
  -15.5880   -3.0000    0.0000 C   0  0  0  0  0  0  0  0  0  0  0  0
  -14.2890   -2.2500    0.0000 C   0  0  0  0  0  0  0  0  0  0  0  0
  -18.1860   -3.0000    0.0000 F   0  0  0  0  0  0  0  0  0  0  0  0
   -6.4950    3.7500    0.0000 N   0  0  0  0  0  0  0  0  0  0  0  0
   -5.1960    4.5000    0.0000 C   0  0  0  0  0  0  0  0  0  0  0  0
   -5.1960    6.0000    0.0000 O   0  0  0  0  0  0  0  0  0  0  0  0
   -7.7940    4.5000    0.0000 O   0  0  0  0  0  0  0  0  0  0  0  0
  1  2  1  0  0  0  0
  1  6  2  0  0  0  0
  2  3  2  0  0  0  0
  3  4  1  0  0  0  0
  4  5  2  0  0  0  0
  4  7  1  0  0  0  0
  5  6  1  0  0  0  0
  7  8  1  0  0  0  0
  8  9  1  0  0  0  0
  9 10  1  0  0  0  0
  9 27  1  0  0  0  0
 10 11  1  0  0  0  0
 11 12  2  0  0  0  0
 11 13  2  0  0  0  0
 11 14  1  0  0  0  0
 14 15  1  0  0  0  0
 14 19  1  0  0  0  0
 15 16  1  0  0  0  0
 16 17  1  0  0  0  0
 17 18  1  0  0  0  0
 17 20  1  0  0  0  0
 18 19  1  0  0  0  0
 20 21  1  0  0  0  0
 20 25  2  0  0  0  0
 21 22  2  0  0  0  0
 22 23  1  0  0  0  0
 23 24  2  0  0  0  0
 23 26  1  0  0  0  0
 24 25  1  0  0  0  0
 27 28  1  0  0  0  0
 27 30  1  0  0  0  0
 28 29  2  0  0  0  0
M  END
>  <n>
154

>  <SMILES>
S(=O)(=O)(N1CCN(CC1)c1ccc(F)cc1)CC(N(O)C=O)CCc1ccccc1

>  <IC50>
<10

>  <Class>
1

>  <NAME>
AZ21

>  <INCHI_KEY>
ZNNFXQHPJPVRAZ-UHFFFAOYSA-N

>  <Reference>
Mitigating the inhibition of human Bile Salt Export Pump by drugs_ opportunities provided by physicochemical property modulation,  in-silico modeling and structural modification_SI

$$$$
AZ23
  MOE2013           2D

 16 16  0  0  0  0  0  0  0  0999 V2000
    1.2990   -0.7500    0.0000 C   0  0  0  0  0  0  0  0  0  0  0  0
    0.0000    0.0000    0.0000 C   0  0  0  0  0  0  0  0  0  0  0  0
    0.0000    1.5000    0.0000 C   0  0  0  0  0  0  0  0  0  0  0  0
   -1.2990    2.2500    0.0000 C   0  0  0  0  0  0  0  0  0  0  0  0
   -2.5980    1.5000    0.0000 C   0  0  0  0  0  0  0  0  0  0  0  0
   -2.5980    0.0000    0.0000 C   0  0  0  0  0  0  0  0  0  0  0  0
   -1.2990   -0.7500    0.0000 C   0  0  0  0  0  0  0  0  0  0  0  0
   -1.2990   -2.2500    0.0000 N   0  0  0  0  0  0  0  0  0  0  0  0
    0.0000   -3.0000    0.0000 C   0  0  0  0  0  0  0  0  0  0  0  0
    1.2990   -2.2500    0.0000 O   0  0  0  0  0  0  0  0  0  0  0  0
    0.0000   -4.5000    0.0000 N   0  0  0  0  0  0  0  0  0  0  0  0
    1.2990   -5.2500    0.0000 C   0  0  0  0  0  0  0  0  0  0  0  0
    2.5980   -4.5000    0.0000 N   0  0  0  0  0  0  0  0  0  0  0  0
    1.2990   -6.7500    0.0000 N   0  0  0  0  0  0  0  0  0  0  0  0
    2.5980   -7.5000    0.0000 C   0  0  0  0  0  0  0  0  0  0  0  0
   -3.8970   -0.7500    0.0000 C   0  0  0  0  0  0  0  0  0  0  0  0
  1  2  1  0  0  0  0
  2  3  1  0  0  0  0
  2  7  2  0  0  0  0
  3  4  2  0  0  0  0
  4  5  1  0  0  0  0
  5  6  2  0  0  0  0
  6  7  1  0  0  0  0
  6 16  1  0  0  0  0
  7  8  1  0  0  0  0
  8  9  1  0  0  0  0
  9 10  2  0  0  0  0
  9 11  1  0  0  0  0
 11 12  1  0  0  0  0
 12 13  2  0  0  0  0
 12 14  1  0  0  0  0
 14 15  1  0  0  0  0
M  END
>  <n>
156

>  <SMILES>
O=C(Nc1c(cccc1C)C)NC(NC)=N

>  <IC50>
>1000

>  <Class>
0

>  <NAME>
AZ23

>  <INCHI_KEY>
RRHJHSBDJDZUGL-UHFFFAOYSA-N

>  <Reference>
Mitigating the inhibition of human Bile Salt Export Pump by drugs_ opportunities provided by physicochemical property modulation,  in-silico modeling and structural modification_SI

$$$$
AZ24
  MOE2013           2D

 24 26  0  0  1  0  0  0  0  0999 V2000
    5.1680   -0.5430    0.0000 C   0  0  0  0  0  0  0  0  0  0  0  0
    3.7970   -1.1530    0.0000 C   0  0  0  0  0  0  0  0  0  0  0  0
    3.6410   -2.6450    0.0000 O   0  0  0  0  0  0  0  0  0  0  0  0
    2.5840   -0.2720    0.0000 N   0  0  0  0  0  0  0  0  0  0  0  0
    1.2140   -0.8820    0.0000 C   0  0  0  0  0  0  0  0  0  0  0  0
    0.0000    0.0000    0.0000 C   0  0  3  0  0  0  0  0  0  0  0  0
    0.0000    1.5000    0.0000 C   0  0  0  0  0  0  0  0  0  0  0  0
   -1.4270    1.9640    0.0000 N   0  0  0  0  0  0  0  0  0  0  0  0
   -2.3080    0.7500    0.0000 C   0  0  0  0  0  0  0  0  0  0  0  0
   -3.8080    0.7500    0.0000 O   0  0  0  0  0  0  0  0  0  0  0  0
   -1.4270   -0.4640    0.0000 O   0  0  0  0  0  0  0  0  0  0  0  0
   -1.8900    3.3900    0.0000 C   0  0  0  0  0  0  0  0  0  0  0  0
   -0.8860    4.5050    0.0000 C   0  0  0  0  0  0  0  0  0  0  0  0
   -1.3500    5.9310    0.0000 C   0  0  0  0  0  0  0  0  0  0  0  0
   -2.8170    6.2430    0.0000 C   0  0  0  0  0  0  0  0  0  0  0  0
   -3.8210    5.1290    0.0000 C   0  0  0  0  0  0  0  0  0  0  0  0
   -3.3570    3.7020    0.0000 C   0  0  0  0  0  0  0  0  0  0  0  0
   -5.2880    5.4400    0.0000 F   0  0  0  0  0  0  0  0  0  0  0  0
   -3.2810    7.6700    0.0000 N   0  0  0  0  0  0  0  0  0  0  0  0
   -2.2770    8.7850    0.0000 C   0  0  0  0  0  0  0  0  0  0  0  0
   -2.7400   10.2110    0.0000 C   0  0  0  0  0  0  0  0  0  0  0  0
   -4.2080   10.5230    0.0000 O   0  0  0  0  0  0  0  0  0  0  0  0
   -5.2110    9.4080    0.0000 C   0  0  0  0  0  0  0  0  0  0  0  0
   -4.7480    7.9820    0.0000 C   0  0  0  0  0  0  0  0  0  0  0  0
  1  2  1  0  0  0  0
  2  3  2  0  0  0  0
  2  4  1  0  0  0  0
  4  5  1  0  0  0  0
  5  6  1  0  0  0  0
  6  7  1  0  0  0  0
  6 11  1  0  0  0  0
  7  8  1  0  0  0  0
  8  9  1  0  0  0  0
  8 12  1  0  0  0  0
  9 10  2  0  0  0  0
  9 11  1  0  0  0  0
 12 13  1  0  0  0  0
 12 17  2  0  0  0  0
 13 14  2  0  0  0  0
 14 15  1  0  0  0  0
 15 16  2  0  0  0  0
 15 19  1  0  0  0  0
 16 17  1  0  0  0  0
 16 18  1  0  0  0  0
 19 20  1  0  0  0  0
 19 24  1  0  0  0  0
 20 21  1  0  0  0  0
 21 22  1  0  0  0  0
 22 23  1  0  0  0  0
 23 24  1  0  0  0  0
M  END
>  <n>
157

>  <SMILES>
Fc1cc(N2C[C@@H](OC2=O)CNC(=O)C)ccc1N1CCOCC1

>  <IC50>
>1000

>  <Class>
0

>  <NAME>
AZ24

>  <INCHI_KEY>
TYZROVQLWOKYKF-ZDUSSCGKSA-N

>  <Reference>
Mitigating the inhibition of human Bile Salt Export Pump by drugs_ opportunities provided by physicochemical property modulation,  in-silico modeling and structural modification_SI

$$$$
AZ25
  MOE2013           2D

 30 32  0  0  1  0  0  0  0  0999 V2000
   14.2890   -0.7500    0.0000 C   0  0  0  0  0  0  0  0  0  0  0  0
   12.9900    0.0000    0.0000 C   0  0  0  0  0  0  0  0  0  0  0  0
   11.6910   -0.7500    0.0000 N   0  0  0  0  0  0  0  0  0  0  0  0
   11.6910   -2.2500    0.0000 C   0  0  0  0  0  0  0  0  0  0  0  0
   12.9900   -3.0000    0.0000 N   0  0  0  0  0  0  0  0  0  0  0  0
   14.2890   -2.2500    0.0000 C   0  0  0  0  0  0  0  0  0  0  0  0
   10.3920   -3.0000    0.0000 C   0  0  0  0  0  0  0  0  0  0  0  0
    9.0930   -2.2500    0.0000 C   0  0  0  0  0  0  0  0  0  0  0  0
    7.7940   -3.0000    0.0000 C   0  0  3  0  0  0  0  0  0  0  0  0
    6.4950   -2.2500    0.0000 C   0  0  0  0  0  0  0  0  0  0  0  0
    5.1960   -3.0000    0.0000 S   0  0  0  0  0  0  0  0  0  0  0  0
    4.2320   -4.1490    0.0000 O   0  0  0  0  0  0  0  0  0  0  0  0
    6.1600   -4.1490    0.0000 O   0  0  0  0  0  0  0  0  0  0  0  0
    3.8970   -2.2500    0.0000 N   0  0  0  0  0  0  0  0  0  0  0  0
    3.8970   -0.7500    0.0000 C   0  0  0  0  0  0  0  0  0  0  0  0
    2.5980    0.0000    0.0000 C   0  0  0  0  0  0  0  0  0  0  0  0
    1.2990   -0.7500    0.0000 N   0  0  0  0  0  0  0  0  0  0  0  0
    1.2990   -2.2500    0.0000 C   0  0  0  0  0  0  0  0  0  0  0  0
    2.5980   -3.0000    0.0000 C   0  0  0  0  0  0  0  0  0  0  0  0
    0.0000    0.0000    0.0000 C   0  0  0  0  0  0  0  0  0  0  0  0
    0.0000    1.5000    0.0000 C   0  0  0  0  0  0  0  0  0  0  0  0
   -1.2990    2.2500    0.0000 C   0  0  0  0  0  0  0  0  0  0  0  0
   -2.5980    1.5000    0.0000 C   0  0  0  0  0  0  0  0  0  0  0  0
   -2.5980    0.0000    0.0000 C   0  0  0  0  0  0  0  0  0  0  0  0
   -1.2990   -0.7500    0.0000 N   0  0  0  0  0  0  0  0  0  0  0  0
   -3.8970    2.2500    0.0000 Cl  0  0  0  0  0  0  0  0  0  0  0  0
    7.7940   -4.5000    0.0000 N   0  0  0  0  0  0  0  0  0  0  0  0
    9.0930   -5.2500    0.0000 C   0  0  0  0  0  0  0  0  0  0  0  0
    9.0930   -6.7500    0.0000 O   0  0  0  0  0  0  0  0  0  0  0  0
    6.4950   -5.2500    0.0000 O   0  0  0  0  0  0  0  0  0  0  0  0
  1  2  1  0  0  0  0
  1  6  2  0  0  0  0
  2  3  2  0  0  0  0
  3  4  1  0  0  0  0
  4  5  2  0  0  0  0
  4  7  1  0  0  0  0
  5  6  1  0  0  0  0
  7  8  1  0  0  0  0
  8  9  1  0  0  0  0
  9 10  1  0  0  0  0
  9 27  1  0  0  0  0
 10 11  1  0  0  0  0
 11 12  2  0  0  0  0
 11 13  2  0  0  0  0
 11 14  1  0  0  0  0
 14 15  1  0  0  0  0
 14 19  1  0  0  0  0
 15 16  1  0  0  0  0
 16 17  1  0  0  0  0
 17 18  1  0  0  0  0
 17 20  1  0  0  0  0
 18 19  1  0  0  0  0
 20 21  1  0  0  0  0
 20 25  2  0  0  0  0
 21 22  2  0  0  0  0
 22 23  1  0  0  0  0
 23 24  2  0  0  0  0
 23 26  1  0  0  0  0
 24 25  1  0  0  0  0
 27 28  1  0  0  0  0
 27 30  1  0  0  0  0
 28 29  2  0  0  0  0
M  END
>  <n>
158

>  <SMILES>
Clc1ccc(nc1)N1CCN(S(=O)(=O)CC(N(O)C=O)CCc2ncccn2)CC1

>  <IC50>
<10

>  <Class>
1

>  <NAME>
AZ25

>  <INCHI_KEY>
SZGPCBLTXMUOPG-UHFFFAOYSA-N

>  <Reference>
Mitigating the inhibition of human Bile Salt Export Pump by drugs_ opportunities provided by physicochemical property modulation,  in-silico modeling and structural modification_SI

$$$$
AZ26
  MOE2013           2D

  9  8  0  0  0  0  0  0  0  0999 V2000
    0.0000    0.0000    0.0000 C   0  0  0  0  0  0  0  0  0  0  0  0
    0.0000    1.5000    0.0000 N   0  0  0  0  0  0  0  0  0  0  0  0
    1.2990    2.2500    0.0000 C   0  0  0  0  0  0  0  0  0  0  0  0
   -1.2990    2.2500    0.0000 C   0  0  0  0  0  0  0  0  0  0  0  0
   -2.5980    1.5000    0.0000 N   0  0  0  0  0  0  0  0  0  0  0  0
   -1.2990    3.7500    0.0000 N   0  0  0  0  0  0  0  0  0  0  0  0
   -2.5980    4.5000    0.0000 C   0  0  0  0  0  0  0  0  0  0  0  0
   -2.5980    6.0000    0.0000 N   0  0  0  0  0  0  0  0  0  0  0  0
   -3.8970    3.7500    0.0000 N   0  0  0  0  0  0  0  0  0  0  0  0
  1  2  1  0  0  0  0
  2  3  1  0  0  0  0
  2  4  1  0  0  0  0
  4  5  2  0  0  0  0
  4  6  1  0  0  0  0
  6  7  1  0  0  0  0
  7  8  2  0  0  0  0
  7  9  1  0  0  0  0
M  END
>  <n>
159

>  <SMILES>
N(C(NC(N)=N)=N)(C)C

>  <IC50>
>1000

>  <Class>
0

>  <NAME>
AZ26

>  <INCHI_KEY>
XZWYZXLIPXDOLR-UHFFFAOYSA-N

>  <Reference>
Mitigating the inhibition of human Bile Salt Export Pump by drugs_ opportunities provided by physicochemical property modulation,  in-silico modeling and structural modification_SI

$$$$
AZ28
  MOE2013           2D

 32 34  0  0  1  0  0  0  0  0999 V2000
    7.7940   -9.0000    0.0000 C   0  0  0  0  0  0  0  0  0  0  0  0
    7.7940   -7.5000    0.0000 C   0  0  0  0  0  0  0  0  0  0  0  0
    6.4950   -6.7500    0.0000 N   0  0  0  0  0  0  0  0  0  0  0  0
    5.1960   -7.5000    0.0000 C   0  0  0  0  0  0  0  0  0  0  0  0
    5.1960   -9.0000    0.0000 N   0  0  0  0  0  0  0  0  0  0  0  0
    6.4950   -9.7500    0.0000 C   0  0  0  0  0  0  0  0  0  0  0  0
    3.8970   -6.7500    0.0000 C   0  0  0  0  0  0  0  0  0  0  0  0
    3.8970   -5.2500    0.0000 C   0  0  0  0  0  0  0  0  0  0  0  0
    2.5980   -4.5000    0.0000 C   0  0  0  0  0  0  0  0  0  0  0  0
    2.5980   -3.0000    0.0000 C   0  0  3  0  0  0  0  0  0  0  0  0
    1.2990   -2.2500    0.0000 C   0  0  0  0  0  0  0  0  0  0  0  0
    1.2990   -0.7500    0.0000 S   0  0  0  0  0  0  0  0  0  0  0  0
    2.7760   -1.0100    0.0000 O   0  0  0  0  0  0  0  0  0  0  0  0
    1.8120    0.6600    0.0000 O   0  0  0  0  0  0  0  0  0  0  0  0
    0.0000    0.0000    0.0000 N   0  0  0  0  0  0  0  0  0  0  0  0
    0.0000    1.5000    0.0000 C   0  0  0  0  0  0  0  0  0  0  0  0
   -1.2990    2.2500    0.0000 C   0  0  0  0  0  0  0  0  0  0  0  0
   -2.5980    1.5000    0.0000 C   0  0  0  0  0  0  0  0  0  0  0  0
   -2.5980    0.0000    0.0000 C   0  0  0  0  0  0  0  0  0  0  0  0
   -1.2990   -0.7500    0.0000 C   0  0  0  0  0  0  0  0  0  0  0  0
   -3.8970    2.2500    0.0000 O   0  0  0  0  0  0  0  0  0  0  0  0
   -3.8970    3.7500    0.0000 C   0  0  0  0  0  0  0  0  0  0  0  0
   -2.5980    4.5000    0.0000 C   0  0  0  0  0  0  0  0  0  0  0  0
   -2.5980    6.0000    0.0000 C   0  0  0  0  0  0  0  0  0  0  0  0
   -3.8970    6.7500    0.0000 C   0  0  0  0  0  0  0  0  0  0  0  0
   -5.1960    6.0000    0.0000 C   0  0  0  0  0  0  0  0  0  0  0  0
   -5.1960    4.5000    0.0000 N   0  0  0  0  0  0  0  0  0  0  0  0
   -3.8970    8.2500    0.0000 Cl  0  0  0  0  0  0  0  0  0  0  0  0
    3.8970   -2.2500    0.0000 N   0  0  0  0  0  0  0  0  0  0  0  0
    5.1960   -3.0000    0.0000 C   0  0  0  0  0  0  0  0  0  0  0  0
    6.4950   -2.2500    0.0000 O   0  0  0  0  0  0  0  0  0  0  0  0
    3.8970   -0.7500    0.0000 O   0  0  0  0  0  0  0  0  0  0  0  0
  1  2  1  0  0  0  0
  1  6  2  0  0  0  0
  2  3  2  0  0  0  0
  3  4  1  0  0  0  0
  4  5  2  0  0  0  0
  4  7  1  0  0  0  0
  5  6  1  0  0  0  0
  7  8  1  0  0  0  0
  8  9  1  0  0  0  0
  9 10  1  0  0  0  0
 10 11  1  0  0  0  0
 10 29  1  0  0  0  0
 11 12  1  0  0  0  0
 12 13  2  0  0  0  0
 12 14  2  0  0  0  0
 12 15  1  0  0  0  0
 15 16  1  0  0  0  0
 15 20  1  0  0  0  0
 16 17  1  0  0  0  0
 17 18  1  0  0  0  0
 18 19  1  0  0  0  0
 18 21  1  0  0  0  0
 19 20  1  0  0  0  0
 21 22  1  0  0  0  0
 22 23  1  0  0  0  0
 22 27  2  0  0  0  0
 23 24  2  0  0  0  0
 24 25  1  0  0  0  0
 25 26  2  0  0  0  0
 25 28  1  0  0  0  0
 26 27  1  0  0  0  0
 29 30  1  0  0  0  0
 29 32  1  0  0  0  0
 30 31  2  0  0  0  0
M  END
>  <n>
161

>  <SMILES>
Clc1ccc(OC2CCN(S(=O)(=O)CC(N(O)C=O)CCCc3ncccn3)CC2)nc1

>  <IC50>
<10

>  <Class>
1

>  <NAME>
AZ28

>  <INCHI_KEY>
NZEDFDJZWVWPFH-UHFFFAOYSA-N

>  <Reference>
Mitigating the inhibition of human Bile Salt Export Pump by drugs_ opportunities provided by physicochemical property modulation,  in-silico modeling and structural modification_SI

$$$$
AZ29
  MOE2013           2D

 12 12  0  0  0  0  0  0  0  0999 V2000
    0.5130   -1.4100    0.0000 C   0  0  0  0  0  0  0  0  0  0  0  0
    0.0000    0.0000    0.0000 C   0  0  0  0  0  0  0  0  0  0  0  0
    0.0000    1.5000    0.0000 C   0  0  0  0  0  0  0  0  0  0  0  0
   -1.2990    2.2500    0.0000 C   0  0  0  0  0  0  0  0  0  0  0  0
   -2.5980    1.5000    0.0000 C   0  0  0  0  0  0  0  0  0  0  0  0
   -2.5980    0.0000    0.0000 C   0  0  0  0  0  0  0  0  0  0  0  0
   -1.2990   -0.7500    0.0000 N   0  0  0  0  0  0  0  0  0  0  0  0
   -1.2990   -2.2500    0.0000 O   0  0  0  0  0  0  0  0  0  0  0  0
   -4.0750    0.2600    0.0000 C   0  0  0  0  0  0  0  0  0  0  0  0
   -3.1110   -1.4100    0.0000 C   0  0  0  0  0  0  0  0  0  0  0  0
   -1.2990    3.7500    0.0000 O   0  0  0  0  0  0  0  0  0  0  0  0
    1.4770    0.2600    0.0000 C   0  0  0  0  0  0  0  0  0  0  0  0
  1  2  1  0  0  0  0
  2  3  1  0  0  0  0
  2  7  1  0  0  0  0
  2 12  1  0  0  0  0
  3  4  1  0  0  0  0
  4  5  1  0  0  0  0
  4 11  1  0  0  0  0
  5  6  1  0  0  0  0
  6  7  1  0  0  0  0
  6  9  1  0  0  0  0
  6 10  1  0  0  0  0
  7  8  1  0  0  0  0
M  END
>  <n>
162

>  <SMILES>
OC1CC(N(O)C(C1)(C)C)(C)C

>  <IC50>
>1000

>  <Class>
0

>  <NAME>
AZ29

>  <INCHI_KEY>
UZFMOKQJFYMBGY-UHFFFAOYSA-N

>  <Reference>
Mitigating the inhibition of human Bile Salt Export Pump by drugs_ opportunities provided by physicochemical property modulation,  in-silico modeling and structural modification_SI

$$$$
AZ3
  MOE2013           2D

 31 34  0  0  0  0  0  0  0  0999 V2000
   10.3920   -9.0000    0.0000 C   0  0  0  0  0  0  0  0  0  0  0  0
    9.0930   -9.7500    0.0000 C   0  0  0  0  0  0  0  0  0  0  0  0
    7.7940   -9.0000    0.0000 C   0  0  0  0  0  0  0  0  0  0  0  0
    6.4950   -9.7500    0.0000 C   0  0  0  0  0  0  0  0  0  0  0  0
    6.4950  -11.2500    0.0000 N   0  0  0  0  0  0  0  0  0  0  0  0
    7.7940  -12.0000    0.0000 C   0  0  0  0  0  0  0  0  0  0  0  0
    9.0930  -11.2500    0.0000 N   0  0  0  0  0  0  0  0  0  0  0  0
    5.1960   -9.0000    0.0000 N   0  0  0  0  0  0  0  0  0  0  0  0
    5.1960   -7.5000    0.0000 C   0  0  0  0  0  0  0  0  0  0  0  0
    3.8970   -6.7500    0.0000 C   0  0  0  0  0  0  0  0  0  0  0  0
    2.5980   -7.5000    0.0000 N   0  0  0  0  0  0  0  0  0  0  0  0
    2.5980   -9.0000    0.0000 C   0  0  0  0  0  0  0  0  0  0  0  0
    3.8970   -9.7500    0.0000 C   0  0  0  0  0  0  0  0  0  0  0  0
    1.2990   -6.7500    0.0000 C   0  0  0  0  0  0  0  0  0  0  0  0
    0.0000   -7.5000    0.0000 O   0  0  0  0  0  0  0  0  0  0  0  0
    1.2990   -5.2500    0.0000 N   0  0  0  0  0  0  0  0  0  0  0  0
    2.5980   -4.5000    0.0000 C   0  0  0  0  0  0  0  0  0  0  0  0
    2.5980   -3.0000    0.0000 C   0  0  0  0  0  0  0  0  0  0  0  0
    1.2990   -2.2500    0.0000 N   0  0  0  0  0  0  0  0  0  0  0  0
    0.0000   -3.0000    0.0000 C   0  0  0  0  0  0  0  0  0  0  0  0
    0.0000   -4.5000    0.0000 C   0  0  0  0  0  0  0  0  0  0  0  0
    1.2990   -0.7500    0.0000 S   0  0  0  0  0  0  0  0  0  0  0  0
    2.7760   -1.0100    0.0000 O   0  0  0  0  0  0  0  0  0  0  0  0
    1.8120    0.6600    0.0000 O   0  0  0  0  0  0  0  0  0  0  0  0
    0.0000    0.0000    0.0000 C   0  0  0  0  0  0  0  0  0  0  0  0
    0.0000    1.5000    0.0000 C   0  0  0  0  0  0  0  0  0  0  0  0
   -1.2990    2.2500    0.0000 C   0  0  0  0  0  0  0  0  0  0  0  0
   -2.5980    1.5000    0.0000 C   0  0  0  0  0  0  0  0  0  0  0  0
   -2.5980    0.0000    0.0000 C   0  0  0  0  0  0  0  0  0  0  0  0
   -1.2990   -0.7500    0.0000 C   0  0  0  0  0  0  0  0  0  0  0  0
   -3.8970    2.2500    0.0000 Br  0  0  0  0  0  0  0  0  0  0  0  0
  1  2  1  0  0  0  0
  2  3  1  0  0  0  0
  2  7  2  0  0  0  0
  3  4  2  0  0  0  0
  4  5  1  0  0  0  0
  4  8  1  0  0  0  0
  5  6  2  0  0  0  0
  6  7  1  0  0  0  0
  8  9  1  0  0  0  0
  8 13  1  0  0  0  0
  9 10  1  0  0  0  0
 10 11  1  0  0  0  0
 11 12  1  0  0  0  0
 11 14  1  0  0  0  0
 12 13  1  0  0  0  0
 14 15  2  0  0  0  0
 14 16  1  0  0  0  0
 16 17  1  0  0  0  0
 16 21  1  0  0  0  0
 17 18  1  0  0  0  0
 18 19  1  0  0  0  0
 19 20  1  0  0  0  0
 19 22  1  0  0  0  0
 20 21  1  0  0  0  0
 22 23  2  0  0  0  0
 22 24  2  0  0  0  0
 22 25  1  0  0  0  0
 25 26  1  0  0  0  0
 25 30  2  0  0  0  0
 26 27  2  0  0  0  0
 27 28  1  0  0  0  0
 28 29  2  0  0  0  0
 28 31  1  0  0  0  0
 29 30  1  0  0  0  0
M  END
>  <n>
163

>  <SMILES>
Brc1ccc(S(=O)(=O)N2CCN(CC2)C(=O)N2CCN(CC2)c2ncnc(c2)C)cc1

>  <IC50>
<10

>  <Class>
1

>  <NAME>
AZ3

>  <INCHI_KEY>
MCPRJPAHDHAHBK-UHFFFAOYSA-N

>  <Reference>
Mitigating the inhibition of human Bile Salt Export Pump by drugs_ opportunities provided by physicochemical property modulation,  in-silico modeling and structural modification_SI

$$$$
AZ31
  MOE2013           2D

 17 17  0  0  0  0  0  0  0  0999 V2000
    3.8970   -0.7500    0.0000 C   0  0  0  0  0  0  0  0  0  0  0  0
    2.5980    0.0000    0.0000 C   0  0  0  0  0  0  0  0  0  0  0  0
    1.2990   -0.7500    0.0000 O   0  0  0  0  0  0  0  0  0  0  0  0
    0.0000    0.0000    0.0000 C   0  0  0  0  0  0  0  0  0  0  0  0
    0.0000    1.5000    0.0000 C   0  0  0  0  0  0  0  0  0  0  0  0
   -1.2990    2.2500    0.0000 C   0  0  0  0  0  0  0  0  0  0  0  0
   -2.5980    1.5000    0.0000 C   0  0  0  0  0  0  0  0  0  0  0  0
   -2.5980    0.0000    0.0000 C   0  0  0  0  0  0  0  0  0  0  0  0
   -1.2990   -0.7500    0.0000 C   0  0  0  0  0  0  0  0  0  0  0  0
   -1.2990   -2.2500    0.0000 C   0  0  0  0  0  0  0  0  0  0  0  0
    0.0000   -3.0000    0.0000 O   0  0  0  0  0  0  0  0  0  0  0  0
   -2.5980   -3.0000    0.0000 O   0  0  0  0  0  0  0  0  0  0  0  0
   -2.5980   -4.5000    0.0000 C   0  0  0  0  0  0  0  0  0  0  0  0
   -1.2990    3.7500    0.0000 N   0  0  0  0  0  0  0  0  0  0  0  0
   -2.5980    4.5000    0.0000 C   0  0  0  0  0  0  0  0  0  0  0  0
   -2.5980    6.0000    0.0000 O   0  0  0  0  0  0  0  0  0  0  0  0
   -3.8970    3.7500    0.0000 C   0  0  0  0  0  0  0  0  0  0  0  0
  1  2  1  0  0  0  0
  2  3  1  0  0  0  0
  3  4  1  0  0  0  0
  4  5  1  0  0  0  0
  4  9  2  0  0  0  0
  5  6  2  0  0  0  0
  6  7  1  0  0  0  0
  6 14  1  0  0  0  0
  7  8  2  0  0  0  0
  8  9  1  0  0  0  0
  9 10  1  0  0  0  0
 10 11  2  0  0  0  0
 10 12  1  0  0  0  0
 12 13  1  0  0  0  0
 14 15  1  0  0  0  0
 15 16  2  0  0  0  0
 15 17  1  0  0  0  0
M  END
>  <n>
165

>  <SMILES>
O(CC)c1cc(NC(=O)C)ccc1C(OC)=O

>  <IC50>
478.5

>  <Class>
0

>  <NAME>
AZ31

>  <INCHI_KEY>
GOVWOKSKFSBNGD-UHFFFAOYSA-N

>  <Reference>
Mitigating the inhibition of human Bile Salt Export Pump by drugs_ opportunities provided by physicochemical property modulation,  in-silico modeling and structural modification_SI

$$$$
AZ32
  MOE2013           2D

 29 32  0  0  1  0  0  0  0  0999 V2000
    0.7740   -5.8020    0.0000 C   0  0  0  0  0  0  0  0  0  0  0  0
    1.7770   -4.6880    0.0000 C   0  0  3  0  0  0  0  0  0  0  0  0
    3.2450   -5.0000    0.0000 C   0  0  0  0  0  0  0  0  0  0  0  0
    3.7080   -6.4260    0.0000 C   0  0  0  0  0  0  0  0  0  0  0  0
    5.1750   -6.7380    0.0000 C   0  0  0  0  0  0  0  0  0  0  0  0
    5.6390   -8.1650    0.0000 O   0  0  0  0  0  0  0  0  0  0  0  0
    6.1790   -5.6230    0.0000 O   0  0  0  0  0  0  0  0  0  0  0  0
    1.3140   -3.2610    0.0000 C   0  0  3  0  0  0  0  0  0  0  0  0
    2.1370   -2.1290    0.0000 C   0  0  0  0  0  0  0  0  0  0  0  0
    1.3140   -0.9960    0.0000 C   0  0  0  0  0  0  0  0  0  0  0  0
   -0.0180   -1.4290    0.0000 C   0  0  3  0  0  0  0  0  0  0  0  0
   -0.0180   -2.8290    0.0000 C   0  0  3  0  0  0  0  0  0  0  0  0
   -1.2300   -3.5290    0.0000 C   0  0  0  0  0  0  0  0  0  0  0  0
   -1.2300   -5.0290    0.0000 O   0  0  0  0  0  0  0  0  0  0  0  0
   -2.4430   -2.8290    0.0000 C   0  0  0  0  0  0  0  0  0  0  0  0
   -2.4430   -1.4290    0.0000 C   0  0  3  0  0  0  0  0  0  0  0  0
   -1.2300   -0.7290    0.0000 C   0  0  3  0  0  0  0  0  0  0  0  0
   -1.2300    0.6710    0.0000 C   0  0  0  0  0  0  0  0  0  0  0  0
    0.0690    1.4210    0.0000 O   0  0  0  0  0  0  0  0  0  0  0  0
   -2.4430    1.3710    0.0000 C   0  0  0  0  0  0  0  0  0  0  0  0
   -3.6550    0.6710    0.0000 C   0  0  3  0  0  0  0  0  0  0  0  0
   -3.6550   -0.7290    0.0000 C   0  0  3  0  0  0  0  0  0  0  0  0
   -4.8670   -1.4290    0.0000 C   0  0  0  0  0  0  0  0  0  0  0  0
   -6.0800   -0.7290    0.0000 C   0  0  0  0  0  0  0  0  0  0  0  0
   -6.0800    0.6710    0.0000 C   0  0  0  0  0  0  0  0  0  0  0  0
   -7.3790    1.4210    0.0000 O   0  0  0  0  0  0  0  0  0  0  0  0
   -4.8670    1.3710    0.0000 C   0  0  0  0  0  0  0  0  0  0  0  0
   -3.6550   -2.2290    0.0000 C   0  0  0  0  0  0  0  0  0  0  0  0
    0.1390   -4.3200    0.0000 C   0  0  0  0  0  0  0  0  0  0  0  0
  1  2  1  0  0  0  0
  2  3  1  0  0  0  0
  2  8  1  0  0  0  0
  3  4  1  0  0  0  0
  4  5  1  0  0  0  0
  5  6  2  0  0  0  0
  5  7  1  0  0  0  0
  8  9  1  0  0  0  0
  8 12  1  0  0  0  0
  9 10  1  0  0  0  0
 10 11  1  0  0  0  0
 11 12  1  0  0  0  0
 11 17  1  0  0  0  0
 12 13  1  0  0  0  0
 12 29  1  0  0  0  0
 13 14  2  0  0  0  0
 13 15  1  0  0  0  0
 15 16  1  0  0  0  0
 16 17  1  0  0  0  0
 16 22  1  0  0  0  0
 17 18  1  0  0  0  0
 18 19  2  0  0  0  0
 18 20  1  0  0  0  0
 20 21  1  0  0  0  0
 21 22  1  0  0  0  0
 21 27  1  0  0  0  0
 22 23  1  0  0  0  0
 22 28  1  0  0  0  0
 23 24  1  0  0  0  0
 24 25  1  0  0  0  0
 25 26  2  0  0  0  0
 25 27  1  0  0  0  0
M  END
>  <n>
166

>  <SMILES>
O=C1CC2C(C3CCC(C(CCC(O)=O)C)C13C)C(=O)CC1CC(=O)CCC12C

>  <IC50>
202.2

>  <Class>
0

>  <NAME>
AZ32

>  <INCHI_KEY>
OHXPGWPVLFPUSM-UHFFFAOYSA-N

>  <Reference>
Mitigating the inhibition of human Bile Salt Export Pump by drugs_ opportunities provided by physicochemical property modulation,  in-silico modeling and structural modification_SI

$$$$
AZ33
  MOE2013           2D

 22 23  0  0  0  0  0  0  0  0999 V2000
    1.2990   -2.2500    0.0000 C   0  0  0  0  0  0  0  0  0  0  0  0
    1.2990   -0.7500    0.0000 C   0  0  0  0  0  0  0  0  0  0  0  0
    2.7760   -1.0100    0.0000 C   0  0  0  0  0  0  0  0  0  0  0  0
    1.8120    0.6600    0.0000 C   0  0  0  0  0  0  0  0  0  0  0  0
    0.0000    0.0000    0.0000 C   0  0  0  0  0  0  0  0  0  0  0  0
    0.0000    1.5000    0.0000 C   0  0  0  0  0  0  0  0  0  0  0  0
   -1.2990    2.2500    0.0000 C   0  0  0  0  0  0  0  0  0  0  0  0
   -1.2990    3.7500    0.0000 C   0  0  0  0  0  0  0  0  0  0  0  0
    0.0000    4.5000    0.0000 O   0  0  0  0  0  0  0  0  0  0  0  0
   -2.5980    4.5000    0.0000 C   0  0  0  0  0  0  0  0  0  0  0  0
   -3.8970    3.7500    0.0000 C   0  0  0  0  0  0  0  0  0  0  0  0
   -3.8970    2.2500    0.0000 O   0  0  0  0  0  0  0  0  0  0  0  0
   -2.5980    1.5000    0.0000 C   0  0  0  0  0  0  0  0  0  0  0  0
   -2.5980    0.0000    0.0000 C   0  0  0  0  0  0  0  0  0  0  0  0
   -1.2990   -0.7500    0.0000 C   0  0  0  0  0  0  0  0  0  0  0  0
   -3.8970   -0.7500    0.0000 C   0  0  0  0  0  0  0  0  0  0  0  0
   -3.8970   -2.2500    0.0000 C   0  0  0  0  0  0  0  0  0  0  0  0
   -4.4100    0.6600    0.0000 C   0  0  0  0  0  0  0  0  0  0  0  0
   -5.3740   -1.0100    0.0000 C   0  0  0  0  0  0  0  0  0  0  0  0
   -5.1960    4.5000    0.0000 C   0  0  0  0  0  0  0  0  0  0  0  0
   -5.1960    6.0000    0.0000 O   0  0  0  0  0  0  0  0  0  0  0  0
   -6.4950    3.7500    0.0000 O   0  0  0  0  0  0  0  0  0  0  0  0
  1  2  1  0  0  0  0
  2  3  1  0  0  0  0
  2  4  1  0  0  0  0
  2  5  1  0  0  0  0
  5  6  1  0  0  0  0
  5 15  2  0  0  0  0
  6  7  2  0  0  0  0
  7  8  1  0  0  0  0
  7 13  1  0  0  0  0
  8  9  2  0  0  0  0
  8 10  1  0  0  0  0
 10 11  2  0  0  0  0
 11 12  1  0  0  0  0
 11 20  1  0  0  0  0
 12 13  1  0  0  0  0
 13 14  2  0  0  0  0
 14 15  1  0  0  0  0
 14 16  1  0  0  0  0
 16 17  1  0  0  0  0
 16 18  1  0  0  0  0
 16 19  1  0  0  0  0
 20 21  2  0  0  0  0
 20 22  1  0  0  0  0
M  END
>  <n>
167

>  <SMILES>
O1c2c(cc(cc2C(C)(C)C)C(C)(C)C)C(=O)C=C1C(O)=O

>  <IC50>
<10

>  <Class>
1

>  <NAME>
AZ33

>  <INCHI_KEY>
CJTURQGHQPDNDA-UHFFFAOYSA-N

>  <Reference>
Mitigating the inhibition of human Bile Salt Export Pump by drugs_ opportunities provided by physicochemical property modulation,  in-silico modeling and structural modification_SI

$$$$
AZ34
  MOE2013           2D

 30 32  0  0  1  0  0  0  0  0999 V2000
    0.0000    0.0000    0.0000 C   0  0  0  0  0  0  0  0  0  0  0  0
    0.0000    1.5000    0.0000 C   0  0  0  0  0  0  0  0  0  0  0  0
   -1.2990    2.2500    0.0000 C   0  0  0  0  0  0  0  0  0  0  0  0
   -2.5980    1.5000    0.0000 C   0  0  0  0  0  0  0  0  0  0  0  0
   -2.5980    0.0000    0.0000 C   0  0  0  0  0  0  0  0  0  0  0  0
   -1.2990   -0.7500    0.0000 C   0  0  0  0  0  0  0  0  0  0  0  0
   -3.8970    2.2500    0.0000 C   0  0  0  0  0  0  0  0  0  0  0  0
   -5.1960    1.5000    0.0000 C   0  0  0  0  0  0  0  0  0  0  0  0
   -6.4950    2.2500    0.0000 C   0  0  3  0  0  0  0  0  0  0  0  0
   -7.7940    1.5000    0.0000 C   0  0  0  0  0  0  0  0  0  0  0  0
   -9.0930    2.2500    0.0000 S   0  0  0  0  0  0  0  0  0  0  0  0
   -8.1290    3.3990    0.0000 O   0  0  0  0  0  0  0  0  0  0  0  0
  -10.0570    3.3990    0.0000 O   0  0  0  0  0  0  0  0  0  0  0  0
  -10.3920    1.5000    0.0000 N   0  0  0  0  0  0  0  0  0  0  0  0
  -11.6910    2.2500    0.0000 C   0  0  0  0  0  0  0  0  0  0  0  0
  -12.9900    1.5000    0.0000 C   0  0  0  0  0  0  0  0  0  0  0  0
  -12.9900    0.0000    0.0000 N   0  0  0  0  0  0  0  0  0  0  0  0
  -11.6910   -0.7500    0.0000 C   0  0  0  0  0  0  0  0  0  0  0  0
  -10.3920    0.0000    0.0000 C   0  0  0  0  0  0  0  0  0  0  0  0
  -14.2890   -0.7500    0.0000 C   0  0  0  0  0  0  0  0  0  0  0  0
  -15.5880    0.0000    0.0000 C   0  0  0  0  0  0  0  0  0  0  0  0
  -16.8880   -0.7500    0.0000 C   0  0  0  0  0  0  0  0  0  0  0  0
  -16.8880   -2.2500    0.0000 C   0  0  0  0  0  0  0  0  0  0  0  0
  -15.5880   -3.0000    0.0000 C   0  0  0  0  0  0  0  0  0  0  0  0
  -14.2890   -2.2500    0.0000 C   0  0  0  0  0  0  0  0  0  0  0  0
  -18.1860   -3.0000    0.0000 F   0  0  0  0  0  0  0  0  0  0  0  0
   -6.4950    3.7500    0.0000 C   0  0  0  0  0  0  0  0  0  0  0  0
   -7.7940    4.5000    0.0000 O   0  0  0  0  0  0  0  0  0  0  0  0
   -5.1960    4.5000    0.0000 N   0  0  0  0  0  0  0  0  0  0  0  0
   -5.1960    6.0000    0.0000 O   0  0  0  0  0  0  0  0  0  0  0  0
  1  2  1  0  0  0  0
  1  6  2  0  0  0  0
  2  3  2  0  0  0  0
  3  4  1  0  0  0  0
  4  5  2  0  0  0  0
  4  7  1  0  0  0  0
  5  6  1  0  0  0  0
  7  8  1  0  0  0  0
  8  9  1  0  0  0  0
  9 10  1  0  0  0  0
  9 27  1  0  0  0  0
 10 11  1  0  0  0  0
 11 12  2  0  0  0  0
 11 13  2  0  0  0  0
 11 14  1  0  0  0  0
 14 15  1  0  0  0  0
 14 19  1  0  0  0  0
 15 16  1  0  0  0  0
 16 17  1  0  0  0  0
 17 18  1  0  0  0  0
 17 20  1  0  0  0  0
 18 19  1  0  0  0  0
 20 21  1  0  0  0  0
 20 25  2  0  0  0  0
 21 22  2  0  0  0  0
 22 23  1  0  0  0  0
 23 24  2  0  0  0  0
 23 26  1  0  0  0  0
 24 25  1  0  0  0  0
 27 28  2  0  0  0  0
 27 29  1  0  0  0  0
 29 30  1  0  0  0  0
M  END
>  <n>
168

>  <SMILES>
S(=O)(=O)(N1CCN(CC1)c1ccc(F)cc1)CC(CCc1ccccc1)C(=O)NO

>  <IC50>
<10

>  <Class>
1

>  <NAME>
AZ34

>  <INCHI_KEY>
PKGPEPNOVYVNGD-UHFFFAOYSA-N

>  <Reference>
Mitigating the inhibition of human Bile Salt Export Pump by drugs_ opportunities provided by physicochemical property modulation,  in-silico modeling and structural modification_SI

$$$$
AZ35
  MOE2013           2D

 15 15  0  0  0  0  0  0  0  0999 V2000
    0.0000    0.0000    0.0000 C   0  0  0  0  0  0  0  0  0  0  0  0
    0.0000    1.5000    0.0000 C   0  0  0  0  0  0  0  0  0  0  0  0
   -1.2990    2.2500    0.0000 C   0  0  0  0  0  0  0  0  0  0  0  0
   -2.5980    1.5000    0.0000 C   0  0  0  0  0  0  0  0  0  0  0  0
   -2.5980    0.0000    0.0000 C   0  0  0  0  0  0  0  0  0  0  0  0
   -1.2990   -0.7500    0.0000 C   0  0  0  0  0  0  0  0  0  0  0  0
   -1.2990   -2.2500    0.0000 N   0  3  0  0  0  0  0  0  0  0  0  0
    0.0000   -3.0000    0.0000 O   0  0  0  0  0  0  0  0  0  0  0  0
   -2.5980   -3.0000    0.0000 O   0  5  0  0  0  0  0  0  0  0  0  0
   -3.8970    2.2500    0.0000 N   0  3  0  0  0  0  0  0  0  0  0  0
   -3.8970    3.7500    0.0000 O   0  0  0  0  0  0  0  0  0  0  0  0
   -5.1960    1.5000    0.0000 O   0  5  0  0  0  0  0  0  0  0  0  0
    1.2990    2.2500    0.0000 C   0  0  0  0  0  0  0  0  0  0  0  0
    1.2990    3.7500    0.0000 O   0  0  0  0  0  0  0  0  0  0  0  0
    2.5980    1.5000    0.0000 N   0  0  0  0  0  0  0  0  0  0  0  0
  1  2  1  0  0  0  0
  1  6  2  0  0  0  0
  2  3  2  0  0  0  0
  2 13  1  0  0  0  0
  3  4  1  0  0  0  0
  4  5  2  0  0  0  0
  4 10  1  0  0  0  0
  5  6  1  0  0  0  0
  6  7  1  0  0  0  0
  7  8  2  0  0  0  0
  7  9  1  0  0  0  0
 10 11  2  0  0  0  0
 10 12  1  0  0  0  0
 13 14  2  0  0  0  0
 13 15  1  0  0  0  0
M  CHG  1   7   1
M  CHG  1   9  -1
M  CHG  1  10   1
M  CHG  1  12  -1
M  END
>  <n>
169

>  <SMILES>
O=C(N)c1cc([N+](=O)[O-])cc([N+](=O)[O-])c1

>  <IC50>
184.5

>  <Class>
0

>  <NAME>
AZ35

>  <INCHI_KEY>
UUKWKUSGGZNXGA-UHFFFAOYSA-N

>  <Reference>
Mitigating the inhibition of human Bile Salt Export Pump by drugs_ opportunities provided by physicochemical property modulation,  in-silico modeling and structural modification_SI

$$$$
AZ36
  MOE2013           2D

 24 25  0  0  0  0  0  0  0  0999 V2000
    5.1680   -0.5430    0.0000 C   0  0  0  0  0  0  0  0  0  0  0  0
    3.7970   -1.1530    0.0000 C   0  0  0  0  0  0  0  0  0  0  0  0
    2.5840   -0.2720    0.0000 O   0  0  0  0  0  0  0  0  0  0  0  0
    1.2140   -0.8820    0.0000 C   0  0  0  0  0  0  0  0  0  0  0  0
    0.0000    0.0000    0.0000 N   0  0  0  0  0  0  0  0  0  0  0  0
    0.0000    1.5000    0.0000 C   0  0  0  0  0  0  0  0  0  0  0  0
   -1.4270    1.9640    0.0000 N   0  0  0  0  0  0  0  0  0  0  0  0
   -2.3080    0.7500    0.0000 C   0  0  0  0  0  0  0  0  0  0  0  0
   -1.4270   -0.4640    0.0000 C   0  0  0  0  0  0  0  0  0  0  0  0
   -2.0370   -1.8340    0.0000 C   0  0  0  0  0  0  0  0  0  0  0  0
   -1.1550   -3.0470    0.0000 O   0  0  0  0  0  0  0  0  0  0  0  0
   -3.5280   -1.9910    0.0000 N   0  0  0  0  0  0  0  0  0  0  0  0
   -4.4100   -0.7770    0.0000 C   0  0  0  0  0  0  0  0  0  0  0  0
   -5.9020   -0.9340    0.0000 O   0  0  0  0  0  0  0  0  0  0  0  0
   -3.8000    0.5930    0.0000 N   0  0  0  0  0  0  0  0  0  0  0  0
   -4.6820    1.8070    0.0000 C   0  0  0  0  0  0  0  0  0  0  0  0
   -4.1390   -3.3610    0.0000 C   0  0  0  0  0  0  0  0  0  0  0  0
   -5.6300   -3.5180    0.0000 C   0  0  0  0  0  0  0  0  0  0  0  0
   -6.2400   -4.8880    0.0000 C   0  0  0  0  0  0  0  0  0  0  0  0
   -7.7320   -5.0450    0.0000 C   0  0  0  0  0  0  0  0  0  0  0  0
   -8.3420   -6.4150    0.0000 C   0  0  0  0  0  0  0  0  0  0  0  0
   -9.8340   -6.5720    0.0000 C   0  0  0  0  0  0  0  0  0  0  0  0
   -8.4470   -7.9120    0.0000 C   0  0  0  0  0  0  0  0  0  0  0  0
   -6.8870   -6.7780    0.0000 O   0  0  0  0  0  0  0  0  0  0  0  0
  1  2  1  0  0  0  0
  2  3  1  0  0  0  0
  3  4  1  0  0  0  0
  4  5  1  0  0  0  0
  5  6  1  0  0  0  0
  5  9  1  0  0  0  0
  6  7  2  0  0  0  0
  7  8  1  0  0  0  0
  8  9  2  0  0  0  0
  8 15  1  0  0  0  0
  9 10  1  0  0  0  0
 10 11  2  0  0  0  0
 10 12  1  0  0  0  0
 12 13  1  0  0  0  0
 12 17  1  0  0  0  0
 13 14  2  0  0  0  0
 13 15  1  0  0  0  0
 15 16  1  0  0  0  0
 17 18  1  0  0  0  0
 18 19  1  0  0  0  0
 19 20  1  0  0  0  0
 20 21  1  0  0  0  0
 21 22  1  0  0  0  0
 21 23  1  0  0  0  0
 21 24  1  0  0  0  0
M  END
>  <n>
170

>  <SMILES>
O=C1N(CCCCC(O)(C)C)C(=O)N(c2ncn(c12)COCC)C

>  <IC50>
304.9

>  <Class>
0

>  <NAME>
AZ36

>  <INCHI_KEY>
QSXXLDDWVCEBFP-UHFFFAOYSA-N

>  <Reference>
Mitigating the inhibition of human Bile Salt Export Pump by drugs_ opportunities provided by physicochemical property modulation,  in-silico modeling and structural modification_SI

$$$$
AZ39
  MOE2013           2D

 18 19  0  0  0  0  0  0  0  0999 V2000
    9.0930    2.2500    0.0000 C   0  0  0  0  0  0  0  0  0  0  0  0
    7.7940    1.5000    0.0000 C   0  0  0  0  0  0  0  0  0  0  0  0
    6.4950    2.2500    0.0000 C   0  0  0  0  0  0  0  0  0  0  0  0
    5.1960    1.5000    0.0000 C   0  0  0  0  0  0  0  0  0  0  0  0
    3.8970    2.2500    0.0000 N   0  0  0  0  0  0  0  0  0  0  0  0
    2.5980    1.5000    0.0000 C   0  0  0  0  0  0  0  0  0  0  0  0
    2.5980    0.0000    0.0000 C   0  0  0  0  0  0  0  0  0  0  0  0
    3.8970   -0.7500    0.0000 C   0  0  0  0  0  0  0  0  0  0  0  0
    5.1960    0.0000    0.0000 N   0  0  0  0  0  0  0  0  0  0  0  0
    3.8970   -2.2500    0.0000 N   0  0  0  0  0  0  0  0  0  0  0  0
    1.2990   -0.7500    0.0000 C   0  0  0  0  0  0  0  0  0  0  0  0
    0.0000    0.0000    0.0000 N   0  3  0  0  0  0  0  0  0  0  0  0
    0.0000    1.5000    0.0000 C   0  0  0  0  0  0  0  0  0  0  0  0
   -1.2990    2.2500    0.0000 C   0  0  0  0  0  0  0  0  0  0  0  0
   -2.5980    1.5000    0.0000 C   0  0  0  0  0  0  0  0  0  0  0  0
   -2.5980    0.0000    0.0000 C   0  0  0  0  0  0  0  0  0  0  0  0
   -1.2990   -0.7500    0.0000 C   0  0  0  0  0  0  0  0  0  0  0  0
   -1.2990   -2.2500    0.0000 C   0  0  0  0  0  0  0  0  0  0  0  0
  1  2  1  0  0  0  0
  2  3  1  0  0  0  0
  3  4  1  0  0  0  0
  4  5  1  0  0  0  0
  4  9  2  0  0  0  0
  5  6  2  0  0  0  0
  6  7  1  0  0  0  0
  7  8  2  0  0  0  0
  7 11  1  0  0  0  0
  8  9  1  0  0  0  0
  8 10  1  0  0  0  0
 11 12  1  0  0  0  0
 12 13  1  0  0  0  0
 12 17  2  0  0  0  0
 13 14  2  0  0  0  0
 14 15  1  0  0  0  0
 15 16  2  0  0  0  0
 16 17  1  0  0  0  0
 17 18  1  0  0  0  0
M  CHG  1  12   1
M  END
>  <n>
173

>  <SMILES>
[n+]1(ccccc1C)Cc1cnc(nc1N)CCC

>  <IC50>
>1000

>  <Class>
0

>  <NAME>
AZ39

>  <INCHI_KEY>
IPZFPROOBOUEIG-UHFFFAOYSA-N

>  <Reference>
Mitigating the inhibition of human Bile Salt Export Pump by drugs_ opportunities provided by physicochemical property modulation,  in-silico modeling and structural modification_SI

$$$$
AZ4
  MOE2013           2D

 24 27  0  0  0  0  0  0  0  0999 V2000
    3.5220   -1.6320    0.0000 C   0  0  0  0  0  0  0  0  0  0  0  0
    2.6400   -0.4180    0.0000 C   0  0  0  0  0  0  0  0  0  0  0  0
    1.2140   -0.8820    0.0000 C   0  0  0  0  0  0  0  0  0  0  0  0
    1.2140   -2.3820    0.0000 O   0  0  0  0  0  0  0  0  0  0  0  0
    2.6400   -2.8450    0.0000 C   0  0  0  0  0  0  0  0  0  0  0  0
    0.0000    0.0000    0.0000 C   0  0  0  0  0  0  0  0  0  0  0  0
    0.0000    1.5000    0.0000 N   0  0  0  0  0  0  0  0  0  0  0  0
   -1.4270    1.9640    0.0000 C   0  0  0  0  0  0  0  0  0  0  0  0
   -2.0370    3.3340    0.0000 N   0  0  0  0  0  0  0  0  0  0  0  0
   -3.5280    3.4910    0.0000 C   0  0  0  0  0  0  0  0  0  0  0  0
   -4.4100    2.2770    0.0000 N   0  0  0  0  0  0  0  0  0  0  0  0
   -3.8000    0.9070    0.0000 C   0  0  0  0  0  0  0  0  0  0  0  0
   -2.3080    0.7500    0.0000 N   0  0  0  0  0  0  0  0  0  0  0  0
   -1.4270   -0.4640    0.0000 N   0  0  0  0  0  0  0  0  0  0  0  0
   -4.6820   -0.3070    0.0000 N   0  0  0  0  0  0  0  0  0  0  0  0
   -4.1390    4.8610    0.0000 N   0  0  0  0  0  0  0  0  0  0  0  0
   -5.6300    5.0180    0.0000 C   0  0  0  0  0  0  0  0  0  0  0  0
   -6.2400    6.3880    0.0000 C   0  0  0  0  0  0  0  0  0  0  0  0
   -7.7320    6.5450    0.0000 N   0  0  0  0  0  0  0  0  0  0  0  0
   -8.3420    7.9150    0.0000 C   0  0  0  0  0  0  0  0  0  0  0  0
   -9.8340    8.0720    0.0000 C   0  0  0  0  0  0  0  0  0  0  0  0
  -10.7160    6.8580    0.0000 O   0  0  0  0  0  0  0  0  0  0  0  0
  -10.1060    5.4880    0.0000 C   0  0  0  0  0  0  0  0  0  0  0  0
   -8.6140    5.3310    0.0000 C   0  0  0  0  0  0  0  0  0  0  0  0
  1  2  1  0  0  0  0
  1  5  2  0  0  0  0
  2  3  2  0  0  0  0
  3  4  1  0  0  0  0
  3  6  1  0  0  0  0
  4  5  1  0  0  0  0
  6  7  1  0  0  0  0
  6 14  2  0  0  0  0
  7  8  2  0  0  0  0
  8  9  1  0  0  0  0
  8 13  1  0  0  0  0
  9 10  2  0  0  0  0
 10 11  1  0  0  0  0
 10 16  1  0  0  0  0
 11 12  2  0  0  0  0
 12 13  1  0  0  0  0
 12 15  1  0  0  0  0
 13 14  1  0  0  0  0
 16 17  1  0  0  0  0
 17 18  1  0  0  0  0
 18 19  1  0  0  0  0
 19 20  1  0  0  0  0
 19 24  1  0  0  0  0
 20 21  1  0  0  0  0
 21 22  1  0  0  0  0
 22 23  1  0  0  0  0
 23 24  1  0  0  0  0
M  END
>  <n>
174

>  <SMILES>
o1cccc1-c1nc2n(n1)C(=NC(=N2)NCCN1CCOCC1)N

>  <IC50>
>1000

>  <Class>
0

>  <NAME>
AZ4

>  <INCHI_KEY>
ATTGDQNXDFXLSI-UHFFFAOYSA-N

>  <Reference>
Mitigating the inhibition of human Bile Salt Export Pump by drugs_ opportunities provided by physicochemical property modulation,  in-silico modeling and structural modification_SI

$$$$
AZ41
  MOE2013           2D

 28 32  0  0  1  0  0  0  0  0999 V2000
    0.0000   -4.5000    0.0000 C   0  0  0  0  0  0  0  0  0  0  0  0
    0.0000   -3.0000    0.0000 N   0  0  3  0  0  0  0  0  0  0  0  0
    1.2990   -2.2500    0.0000 C   0  0  0  0  0  0  0  0  0  0  0  0
    1.2990   -0.7500    0.0000 C   0  0  0  0  0  0  0  0  0  0  0  0
    0.0000    0.0000    0.0000 C   0  0  0  0  0  0  0  0  0  0  0  0
    0.0000    1.5000    0.0000 C   0  0  0  0  0  0  0  0  0  0  0  0
   -1.2990    2.2500    0.0000 C   0  0  0  0  0  0  0  0  0  0  0  0
   -2.5980    1.5000    0.0000 C   0  0  0  0  0  0  0  0  0  0  0  0
   -2.5980    0.0000    0.0000 C   0  0  0  0  0  0  0  0  0  0  0  0
   -1.2990   -0.7500    0.0000 C   0  0  0  0  0  0  0  0  0  0  0  0
   -1.2990   -2.2500    0.0000 C   0  0  3  0  0  0  0  0  0  0  0  0
   -2.5980   -3.0000    0.0000 C   0  0  3  0  0  0  0  0  0  0  0  0
   -3.9680   -2.3900    0.0000 C   0  0  0  0  0  0  0  0  0  0  0  0
   -4.4320   -0.9630    0.0000 C   0  0  0  0  0  0  0  0  0  0  0  0
   -5.8990   -0.6510    0.0000 C   0  0  0  0  0  0  0  0  0  0  0  0
   -6.9030   -1.7660    0.0000 C   0  0  0  0  0  0  0  0  0  0  0  0
   -6.4390   -3.1930    0.0000 C   0  0  0  0  0  0  0  0  0  0  0  0
   -4.9720   -3.5050    0.0000 C   0  0  0  0  0  0  0  0  0  0  0  0
   -4.2220   -4.8040    0.0000 C   0  0  0  0  0  0  0  0  0  0  0  0
   -4.8320   -6.1740    0.0000 O   0  0  0  0  0  0  0  0  0  0  0  0
   -2.7550   -4.4920    0.0000 O   0  0  0  0  0  0  0  0  0  0  0  0
   -7.4430   -4.3080    0.0000 O   0  0  0  0  0  0  0  0  0  0  0  0
   -8.9100   -3.9960    0.0000 C   0  0  0  0  0  0  0  0  0  0  0  0
   -8.3700   -1.4540    0.0000 O   0  0  0  0  0  0  0  0  0  0  0  0
   -9.3740   -2.5690    0.0000 C   0  0  0  0  0  0  0  0  0  0  0  0
   -3.7130    2.5040    0.0000 O   0  0  0  0  0  0  0  0  0  0  0  0
   -3.1030    3.8740    0.0000 C   0  0  0  0  0  0  0  0  0  0  0  0
   -1.6110    3.7170    0.0000 O   0  0  0  0  0  0  0  0  0  0  0  0
  1  2  1  0  0  0  0
  2  3  1  0  0  0  0
  2 11  1  0  0  0  0
  3  4  1  0  0  0  0
  4  5  1  0  0  0  0
  5  6  1  0  0  0  0
  5 10  2  0  0  0  0
  6  7  2  0  0  0  0
  7  8  1  0  0  0  0
  7 28  1  0  0  0  0
  8  9  2  0  0  0  0
  8 26  1  0  0  0  0
  9 10  1  0  0  0  0
 10 11  1  0  0  0  0
 11 12  1  0  0  0  0
 12 13  1  0  0  0  0
 12 21  1  0  0  0  0
 13 14  1  0  0  0  0
 13 18  2  0  0  0  0
 14 15  2  0  0  0  0
 15 16  1  0  0  0  0
 16 17  2  0  0  0  0
 16 24  1  0  0  0  0
 17 18  1  0  0  0  0
 17 22  1  0  0  0  0
 18 19  1  0  0  0  0
 19 20  2  0  0  0  0
 19 21  1  0  0  0  0
 22 23  1  0  0  0  0
 24 25  1  0  0  0  0
 26 27  1  0  0  0  0
 27 28  1  0  0  0  0
M  END
>  <n>
176

>  <SMILES>
O1C(c2c(c(OC)c(OC)cc2)C1=O)C1N(CCc2c1cc1OCOc1c2)C

>  <IC50>
65.64

>  <Class>
0

>  <NAME>
AZ41

>  <INCHI_KEY>
JZUTXVTYJDCMDU-UHFFFAOYSA-N

>  <Reference>
Mitigating the inhibition of human Bile Salt Export Pump by drugs_ opportunities provided by physicochemical property modulation,  in-silico modeling and structural modification_SI

$$$$
AZ42
  MOE2013           2D

 12 12  0  0  1  0  0  0  0  0999 V2000
    5.1960    0.0000    0.0000 C   0  0  0  0  0  0  0  0  0  0  0  0
    3.8970   -0.7500    0.0000 N   0  0  0  0  0  0  0  0  0  0  0  0
    2.5980    0.0000    0.0000 C   0  0  0  0  0  0  0  0  0  0  0  0
    1.2990   -0.7500    0.0000 C   0  0  3  0  0  0  0  0  0  0  0  0
    0.0000    0.0000    0.0000 C   0  0  0  0  0  0  0  0  0  0  0  0
    0.0000    1.5000    0.0000 C   0  0  0  0  0  0  0  0  0  0  0  0
   -1.2990    2.2500    0.0000 C   0  0  0  0  0  0  0  0  0  0  0  0
   -2.5980    1.5000    0.0000 C   0  0  0  0  0  0  0  0  0  0  0  0
   -2.5980    0.0000    0.0000 C   0  0  0  0  0  0  0  0  0  0  0  0
   -1.2990   -0.7500    0.0000 C   0  0  0  0  0  0  0  0  0  0  0  0
   -3.8970   -0.7500    0.0000 O   0  0  0  0  0  0  0  0  0  0  0  0
    1.2990   -2.2500    0.0000 O   0  0  0  0  0  0  0  0  0  0  0  0
  1  2  1  0  0  0  0
  2  3  1  0  0  0  0
  3  4  1  0  0  0  0
  4  5  1  0  0  0  0
  4 12  1  0  0  0  0
  5  6  1  0  0  0  0
  5 10  2  0  0  0  0
  6  7  2  0  0  0  0
  7  8  1  0  0  0  0
  8  9  2  0  0  0  0
  9 10  1  0  0  0  0
  9 11  1  0  0  0  0
M  END
>  <n>
177

>  <SMILES>
Oc1cc(ccc1)C(O)CNC

>  <IC50>
>1000

>  <Class>
0

>  <NAME>
AZ42

>  <INCHI_KEY>
SONNWYBIRXJNDC-UHFFFAOYSA-N

>  <Reference>
Mitigating the inhibition of human Bile Salt Export Pump by drugs_ opportunities provided by physicochemical property modulation,  in-silico modeling and structural modification_SI

$$$$
AZ43
  MOE2013           2D

 30 32  0  0  1  0  0  0  0  0999 V2000
    0.0000    0.0000    0.0000 C   0  0  0  0  0  0  0  0  0  0  0  0
    0.0000    1.5000    0.0000 C   0  0  0  0  0  0  0  0  0  0  0  0
   -1.2990    2.2500    0.0000 C   0  0  0  0  0  0  0  0  0  0  0  0
   -2.5980    1.5000    0.0000 C   0  0  0  0  0  0  0  0  0  0  0  0
   -2.5980    0.0000    0.0000 C   0  0  0  0  0  0  0  0  0  0  0  0
   -1.2990   -0.7500    0.0000 C   0  0  0  0  0  0  0  0  0  0  0  0
   -3.8970    2.2500    0.0000 C   0  0  0  0  0  0  0  0  0  0  0  0
   -5.1960    1.5000    0.0000 C   0  0  0  0  0  0  0  0  0  0  0  0
   -6.4950    2.2500    0.0000 C   0  0  3  0  0  0  0  0  0  0  0  0
   -7.7940    1.5000    0.0000 C   0  0  0  0  0  0  0  0  0  0  0  0
   -9.0930    2.2500    0.0000 S   0  0  0  0  0  0  0  0  0  0  0  0
   -8.1290    3.3990    0.0000 O   0  0  0  0  0  0  0  0  0  0  0  0
  -10.0570    3.3990    0.0000 O   0  0  0  0  0  0  0  0  0  0  0  0
  -10.3920    1.5000    0.0000 N   0  0  0  0  0  0  0  0  0  0  0  0
  -11.6910    2.2500    0.0000 C   0  0  0  0  0  0  0  0  0  0  0  0
  -12.9900    1.5000    0.0000 C   0  0  0  0  0  0  0  0  0  0  0  0
  -12.9900    0.0000    0.0000 N   0  0  0  0  0  0  0  0  0  0  0  0
  -11.6910   -0.7500    0.0000 C   0  0  0  0  0  0  0  0  0  0  0  0
  -10.3920    0.0000    0.0000 C   0  0  0  0  0  0  0  0  0  0  0  0
  -14.2890   -0.7500    0.0000 C   0  0  0  0  0  0  0  0  0  0  0  0
  -15.5880    0.0000    0.0000 C   0  0  0  0  0  0  0  0  0  0  0  0
  -16.8880   -0.7500    0.0000 C   0  0  0  0  0  0  0  0  0  0  0  0
  -16.8880   -2.2500    0.0000 C   0  0  0  0  0  0  0  0  0  0  0  0
  -15.5880   -3.0000    0.0000 C   0  0  0  0  0  0  0  0  0  0  0  0
  -14.2890   -2.2500    0.0000 N   0  0  0  0  0  0  0  0  0  0  0  0
  -18.1860   -3.0000    0.0000 Cl  0  0  0  0  0  0  0  0  0  0  0  0
   -6.4950    3.7500    0.0000 N   0  0  0  0  0  0  0  0  0  0  0  0
   -5.1960    4.5000    0.0000 C   0  0  0  0  0  0  0  0  0  0  0  0
   -5.1960    6.0000    0.0000 O   0  0  0  0  0  0  0  0  0  0  0  0
   -7.7940    4.5000    0.0000 O   0  0  0  0  0  0  0  0  0  0  0  0
  1  2  1  0  0  0  0
  1  6  2  0  0  0  0
  2  3  2  0  0  0  0
  3  4  1  0  0  0  0
  4  5  2  0  0  0  0
  4  7  1  0  0  0  0
  5  6  1  0  0  0  0
  7  8  1  0  0  0  0
  8  9  1  0  0  0  0
  9 10  1  0  0  0  0
  9 27  1  0  0  0  0
 10 11  1  0  0  0  0
 11 12  2  0  0  0  0
 11 13  2  0  0  0  0
 11 14  1  0  0  0  0
 14 15  1  0  0  0  0
 14 19  1  0  0  0  0
 15 16  1  0  0  0  0
 16 17  1  0  0  0  0
 17 18  1  0  0  0  0
 17 20  1  0  0  0  0
 18 19  1  0  0  0  0
 20 21  1  0  0  0  0
 20 25  2  0  0  0  0
 21 22  2  0  0  0  0
 22 23  1  0  0  0  0
 23 24  2  0  0  0  0
 23 26  1  0  0  0  0
 24 25  1  0  0  0  0
 27 28  1  0  0  0  0
 27 30  1  0  0  0  0
 28 29  2  0  0  0  0
M  END
>  <n>
178

>  <SMILES>
Clc1ccc(nc1)N1CCN(S(=O)(=O)CC(N(O)C=O)CCc2ccccc2)CC1

>  <IC50>
<10

>  <Class>
1

>  <NAME>
AZ43

>  <INCHI_KEY>
XJCRXPNWASFPJV-UHFFFAOYSA-N

>  <Reference>
Mitigating the inhibition of human Bile Salt Export Pump by drugs_ opportunities provided by physicochemical property modulation,  in-silico modeling and structural modification_SI

$$$$
AZ45
  MOE2013           2D

 16 17  0  0  1  0  0  0  0  0999 V2000
   -1.2990   -5.2500    0.0000 C   0  0  0  0  0  0  0  0  0  0  0  0
    0.0000   -4.5000    0.0000 C   0  0  3  0  0  0  0  0  0  0  0  0
    1.2990   -5.2500    0.0000 C   0  0  0  0  0  0  0  0  0  0  0  0
    1.2990   -6.7500    0.0000 O   0  0  0  0  0  0  0  0  0  0  0  0
    0.0000   -3.0000    0.0000 C   0  0  0  0  0  0  0  0  0  0  0  0
    1.2990   -2.2500    0.0000 C   0  0  0  0  0  0  0  0  0  0  0  0
    1.2990   -0.7500    0.0000 C   0  0  0  0  0  0  0  0  0  0  0  0
    0.0000    0.0000    0.0000 C   0  0  0  0  0  0  0  0  0  0  0  0
    0.0000    1.5000    0.0000 C   0  0  0  0  0  0  0  0  0  0  0  0
   -1.2990    2.2500    0.0000 C   0  0  0  0  0  0  0  0  0  0  0  0
   -2.5980    1.5000    0.0000 C   0  0  0  0  0  0  0  0  0  0  0  0
   -2.5980    0.0000    0.0000 C   0  0  0  0  0  0  0  0  0  0  0  0
   -1.2990   -0.7500    0.0000 C   0  0  0  0  0  0  0  0  0  0  0  0
   -1.2990   -2.2500    0.0000 C   0  0  0  0  0  0  0  0  0  0  0  0
   -1.2990    3.7500    0.0000 O   0  0  0  0  0  0  0  0  0  0  0  0
   -2.5980    4.5000    0.0000 C   0  0  0  0  0  0  0  0  0  0  0  0
  1  2  1  0  0  0  0
  2  3  1  0  0  0  0
  2  5  1  0  0  0  0
  3  4  1  0  0  0  0
  5  6  1  0  0  0  0
  5 14  2  0  0  0  0
  6  7  2  0  0  0  0
  7  8  1  0  0  0  0
  8  9  1  0  0  0  0
  8 13  2  0  0  0  0
  9 10  2  0  0  0  0
 10 11  1  0  0  0  0
 10 15  1  0  0  0  0
 11 12  2  0  0  0  0
 12 13  1  0  0  0  0
 13 14  1  0  0  0  0
 15 16  1  0  0  0  0
M  END
>  <n>
180

>  <SMILES>
O(C)c1cc2c(cc(cc2)C(CO)C)cc1

>  <IC50>
97.58

>  <Class>
0

>  <NAME>
AZ45

>  <INCHI_KEY>
LTRANDSQVZFZDG-UHFFFAOYSA-N

>  <Reference>
Mitigating the inhibition of human Bile Salt Export Pump by drugs_ opportunities provided by physicochemical property modulation,  in-silico modeling and structural modification_SI

$$$$
AZ46
  MOE2013           2D

 21 22  0  0  1  0  0  0  0  0999 V2000
    4.3840   -8.0020    0.0000 C   0  0  0  0  0  0  0  0  0  0  0  0
    3.1700   -7.1200    0.0000 C   0  0  0  0  0  0  0  0  0  0  0  0
    1.7280   -6.7070    0.0000 C   0  0  0  0  0  0  0  0  0  0  0  0
    2.5130   -8.4690    0.0000 C   0  0  0  0  0  0  0  0  0  0  0  0
    3.3270   -5.6290    0.0000 N   0  0  0  0  0  0  0  0  0  0  0  0
    2.1140   -4.7470    0.0000 C   0  0  0  0  0  0  0  0  0  0  0  0
    2.2700   -3.2550    0.0000 C   0  0  3  0  0  0  0  0  0  0  0  0
    1.0570   -2.3740    0.0000 C   0  0  0  0  0  0  0  0  0  0  0  0
    1.2140   -0.8820    0.0000 O   0  0  0  0  0  0  0  0  0  0  0  0
    0.0000    0.0000    0.0000 C   0  0  0  0  0  0  0  0  0  0  0  0
    0.0000    1.5000    0.0000 C   0  0  0  0  0  0  0  0  0  0  0  0
   -1.4270    1.9640    0.0000 N   0  0  0  0  0  0  0  0  0  0  0  0
   -2.3080    0.7500    0.0000 S   0  0  0  0  0  0  0  0  0  0  0  0
   -1.4270   -0.4640    0.0000 N   0  0  0  0  0  0  0  0  0  0  0  0
    1.2140    2.3820    0.0000 N   0  0  0  0  0  0  0  0  0  0  0  0
    2.5840    1.7720    0.0000 C   0  0  0  0  0  0  0  0  0  0  0  0
    3.7970    2.6530    0.0000 C   0  0  0  0  0  0  0  0  0  0  0  0
    3.6410    4.1450    0.0000 O   0  0  0  0  0  0  0  0  0  0  0  0
    2.2700    4.7550    0.0000 C   0  0  0  0  0  0  0  0  0  0  0  0
    1.0570    3.8740    0.0000 C   0  0  0  0  0  0  0  0  0  0  0  0
    3.6410   -2.6450    0.0000 O   0  0  0  0  0  0  0  0  0  0  0  0
  1  2  1  0  0  0  0
  2  3  1  0  0  0  0
  2  4  1  0  0  0  0
  2  5  1  0  0  0  0
  5  6  1  0  0  0  0
  6  7  1  0  0  0  0
  7  8  1  0  0  0  0
  7 21  1  0  0  0  0
  8  9  1  0  0  0  0
  9 10  1  0  0  0  0
 10 11  1  0  0  0  0
 10 14  2  0  0  0  0
 11 12  2  0  0  0  0
 11 15  1  0  0  0  0
 12 13  1  0  0  0  0
 13 14  1  0  0  0  0
 15 16  1  0  0  0  0
 15 20  1  0  0  0  0
 16 17  1  0  0  0  0
 17 18  1  0  0  0  0
 18 19  1  0  0  0  0
 19 20  1  0  0  0  0
M  END
>  <n>
181

>  <SMILES>
s1nc(N2CCOCC2)c(OCC(O)CNC(C)(C)C)n1

>  <IC50>
>1000

>  <Class>
0

>  <NAME>
AZ46

>  <INCHI_KEY>
BLJRIMJGRPQVNF-UHFFFAOYSA-N

>  <Reference>
Mitigating the inhibition of human Bile Salt Export Pump by drugs_ opportunities provided by physicochemical property modulation,  in-silico modeling and structural modification_SI

$$$$
AZ47
  MOE2013           2D

 13 13  0  0  0  0  0  0  0  0999 V2000
    0.0000    0.0000    0.0000 C   0  0  0  0  0  0  0  0  0  0  0  0
    0.0000    1.5000    0.0000 C   0  0  0  0  0  0  0  0  0  0  0  0
   -1.2990    2.2500    0.0000 C   0  0  0  0  0  0  0  0  0  0  0  0
   -2.5980    1.5000    0.0000 C   0  0  0  0  0  0  0  0  0  0  0  0
   -2.5980    0.0000    0.0000 C   0  0  0  0  0  0  0  0  0  0  0  0
   -1.2990   -0.7500    0.0000 C   0  0  0  0  0  0  0  0  0  0  0  0
   -1.2990   -2.2500    0.0000 N   0  3  0  0  0  0  0  0  0  0  0  0
    0.0000   -3.0000    0.0000 O   0  0  0  0  0  0  0  0  0  0  0  0
   -2.5980   -3.0000    0.0000 O   0  5  0  0  0  0  0  0  0  0  0  0
   -3.8970    2.2500    0.0000 Cl  0  0  0  0  0  0  0  0  0  0  0  0
   -1.2990    3.7500    0.0000 C   0  0  0  0  0  0  0  0  0  0  0  0
    0.0000    4.5000    0.0000 O   0  0  0  0  0  0  0  0  0  0  0  0
   -2.5980    4.5000    0.0000 N   0  0  0  0  0  0  0  0  0  0  0  0
  1  2  1  0  0  0  0
  1  6  2  0  0  0  0
  2  3  2  0  0  0  0
  3  4  1  0  0  0  0
  3 11  1  0  0  0  0
  4  5  2  0  0  0  0
  4 10  1  0  0  0  0
  5  6  1  0  0  0  0
  6  7  1  0  0  0  0
  7  8  2  0  0  0  0
  7  9  1  0  0  0  0
 11 12  2  0  0  0  0
 11 13  1  0  0  0  0
M  CHG  1   7   1
M  CHG  1   9  -1
M  END
>  <n>
182

>  <SMILES>
Clc1cc([N+](=O)[O-])ccc1C(=O)N

>  <IC50>
>1000

>  <Class>
0

>  <NAME>
AZ47

>  <INCHI_KEY>
GFGSZUNNBQXGMK-UHFFFAOYSA-N

>  <Reference>
Mitigating the inhibition of human Bile Salt Export Pump by drugs_ opportunities provided by physicochemical property modulation,  in-silico modeling and structural modification_SI

$$$$
AZ48
  MOE2013           2D

 22 23  0  0  1  0  0  0  0  0999 V2000
    5.1960   10.5000    0.0000 C   0  0  0  0  0  0  0  0  0  0  0  0
    5.1960    9.0000    0.0000 C   0  0  0  0  0  0  0  0  0  0  0  0
    5.7090    7.5900    0.0000 C   0  0  0  0  0  0  0  0  0  0  0  0
    6.6730    9.2600    0.0000 C   0  0  0  0  0  0  0  0  0  0  0  0
    3.8970    8.2500    0.0000 N   0  0  0  0  0  0  0  0  0  0  0  0
    3.8970    6.7500    0.0000 C   0  0  0  0  0  0  0  0  0  0  0  0
    2.5980    6.0000    0.0000 C   0  0  3  0  0  0  0  0  0  0  0  0
    2.5980    4.5000    0.0000 C   0  0  0  0  0  0  0  0  0  0  0  0
    1.2990    3.7500    0.0000 O   0  0  0  0  0  0  0  0  0  0  0  0
    1.2990    2.2500    0.0000 C   0  0  0  0  0  0  0  0  0  0  0  0
    2.5980    1.5000    0.0000 C   0  0  0  0  0  0  0  0  0  0  0  0
    2.5980    0.0000    0.0000 C   0  0  0  0  0  0  0  0  0  0  0  0
    1.2990   -0.7500    0.0000 C   0  0  0  0  0  0  0  0  0  0  0  0
    0.0000    0.0000    0.0000 C   0  0  0  0  0  0  0  0  0  0  0  0
    0.0000    1.5000    0.0000 C   0  0  0  0  0  0  0  0  0  0  0  0
   -1.2990    2.2500    0.0000 C   0  0  0  0  0  0  0  0  0  0  0  0
   -2.5980    1.5000    0.0000 C   0  0  3  0  0  0  0  0  0  0  0  0
   -2.5980    0.0000    0.0000 C   0  0  3  0  0  0  0  0  0  0  0  0
   -1.2990   -0.7500    0.0000 C   0  0  0  0  0  0  0  0  0  0  0  0
   -3.8970   -0.7500    0.0000 O   0  0  0  0  0  0  0  0  0  0  0  0
   -3.8970    2.2500    0.0000 O   0  0  0  0  0  0  0  0  0  0  0  0
    1.2990    6.7500    0.0000 O   0  0  0  0  0  0  0  0  0  0  0  0
  1  2  1  0  0  0  0
  2  3  1  0  0  0  0
  2  4  1  0  0  0  0
  2  5  1  0  0  0  0
  5  6  1  0  0  0  0
  6  7  1  0  0  0  0
  7  8  1  0  0  0  0
  7 22  1  0  0  0  0
  8  9  1  0  0  0  0
  9 10  1  0  0  0  0
 10 11  1  0  0  0  0
 10 15  2  0  0  0  0
 11 12  2  0  0  0  0
 12 13  1  0  0  0  0
 13 14  2  0  0  0  0
 14 15  1  0  0  0  0
 14 19  1  0  0  0  0
 15 16  1  0  0  0  0
 16 17  1  0  0  0  0
 17 18  1  0  0  0  0
 17 21  1  0  0  0  0
 18 19  1  0  0  0  0
 18 20  1  0  0  0  0
M  END
>  <n>
183

>  <SMILES>
O(CC(O)CNC(C)(C)C)c1c2CC(O)C(O)Cc2ccc1

>  <IC50>
>1000

>  <Class>
0

>  <NAME>
AZ48

>  <INCHI_KEY>
VWPOSFSPZNDTMJ-UHFFFAOYSA-N

>  <Reference>
Mitigating the inhibition of human Bile Salt Export Pump by drugs_ opportunities provided by physicochemical property modulation,  in-silico modeling and structural modification_SI

$$$$
AZ49
  MOE2013           2D

 30 32  0  0  1  0  0  0  0  0999 V2000
    0.0000    0.0000    0.0000 C   0  0  0  0  0  0  0  0  0  0  0  0
    0.0000    1.5000    0.0000 C   0  0  0  0  0  0  0  0  0  0  0  0
   -1.2990    2.2500    0.0000 C   0  0  0  0  0  0  0  0  0  0  0  0
   -2.5980    1.5000    0.0000 C   0  0  0  0  0  0  0  0  0  0  0  0
   -2.5980    0.0000    0.0000 N   0  0  0  0  0  0  0  0  0  0  0  0
   -1.2990   -0.7500    0.0000 C   0  0  0  0  0  0  0  0  0  0  0  0
   -1.2990    3.7500    0.0000 C   0  0  0  0  0  0  0  0  0  0  0  0
   -2.5980    4.5000    0.0000 C   0  0  0  0  0  0  0  0  0  0  0  0
   -2.5980    6.0000    0.0000 C   0  0  3  0  0  0  0  0  0  0  0  0
   -3.8970    6.7500    0.0000 C   0  0  0  0  0  0  0  0  0  0  0  0
   -3.8970    8.2500    0.0000 S   0  0  0  0  0  0  0  0  0  0  0  0
   -2.4200    7.9900    0.0000 O   0  0  0  0  0  0  0  0  0  0  0  0
   -3.3840    9.6600    0.0000 O   0  0  0  0  0  0  0  0  0  0  0  0
   -5.1960    9.0000    0.0000 N   0  0  0  0  0  0  0  0  0  0  0  0
   -5.1960   10.5000    0.0000 C   0  0  0  0  0  0  0  0  0  0  0  0
   -6.4950   11.2500    0.0000 C   0  0  0  0  0  0  0  0  0  0  0  0
   -7.7940   10.5000    0.0000 N   0  0  0  0  0  0  0  0  0  0  0  0
   -7.7940    9.0000    0.0000 C   0  0  0  0  0  0  0  0  0  0  0  0
   -6.4950    8.2500    0.0000 C   0  0  0  0  0  0  0  0  0  0  0  0
   -9.0930   11.2500    0.0000 C   0  0  0  0  0  0  0  0  0  0  0  0
   -9.0930   12.7500    0.0000 C   0  0  0  0  0  0  0  0  0  0  0  0
  -10.3920   13.5000    0.0000 C   0  0  0  0  0  0  0  0  0  0  0  0
  -11.6910   12.7500    0.0000 C   0  0  0  0  0  0  0  0  0  0  0  0
  -11.6910   11.2500    0.0000 C   0  0  0  0  0  0  0  0  0  0  0  0
  -10.3920   10.5000    0.0000 N   0  0  0  0  0  0  0  0  0  0  0  0
  -12.9900   13.5000    0.0000 Cl  0  0  0  0  0  0  0  0  0  0  0  0
   -1.2990    6.7500    0.0000 N   0  0  0  0  0  0  0  0  0  0  0  0
    0.0000    6.0000    0.0000 C   0  0  0  0  0  0  0  0  0  0  0  0
    1.2990    6.7500    0.0000 O   0  0  0  0  0  0  0  0  0  0  0  0
   -1.2990    8.2500    0.0000 O   0  0  0  0  0  0  0  0  0  0  0  0
  1  2  1  0  0  0  0
  1  6  2  0  0  0  0
  2  3  2  0  0  0  0
  3  4  1  0  0  0  0
  3  7  1  0  0  0  0
  4  5  2  0  0  0  0
  5  6  1  0  0  0  0
  7  8  1  0  0  0  0
  8  9  1  0  0  0  0
  9 10  1  0  0  0  0
  9 27  1  0  0  0  0
 10 11  1  0  0  0  0
 11 12  2  0  0  0  0
 11 13  2  0  0  0  0
 11 14  1  0  0  0  0
 14 15  1  0  0  0  0
 14 19  1  0  0  0  0
 15 16  1  0  0  0  0
 16 17  1  0  0  0  0
 17 18  1  0  0  0  0
 17 20  1  0  0  0  0
 18 19  1  0  0  0  0
 20 21  1  0  0  0  0
 20 25  2  0  0  0  0
 21 22  2  0  0  0  0
 22 23  1  0  0  0  0
 23 24  2  0  0  0  0
 23 26  1  0  0  0  0
 24 25  1  0  0  0  0
 27 28  1  0  0  0  0
 27 30  1  0  0  0  0
 28 29  2  0  0  0  0
M  END
>  <n>
184

>  <SMILES>
Clc1ccc(nc1)N1CCN(S(=O)(=O)CC(N(O)C=O)CCc2cccnc2)CC1

>  <IC50>
<10

>  <Class>
1

>  <NAME>
AZ49

>  <INCHI_KEY>
GTZJPVAOIBKDEE-UHFFFAOYSA-N

>  <Reference>
Mitigating the inhibition of human Bile Salt Export Pump by drugs_ opportunities provided by physicochemical property modulation,  in-silico modeling and structural modification_SI

$$$$
AZ5
  MOE2013           2D

 30 32  0  0  1  0  0  0  0  0999 V2000
   14.2890   -2.2500    0.0000 C   0  0  0  0  0  0  0  0  0  0  0  0
   14.2890   -0.7500    0.0000 C   0  0  0  0  0  0  0  0  0  0  0  0
   12.9900    0.0000    0.0000 C   0  0  0  0  0  0  0  0  0  0  0  0
   11.6910   -0.7500    0.0000 N   0  0  0  0  0  0  0  0  0  0  0  0
   11.6910   -2.2500    0.0000 C   0  0  0  0  0  0  0  0  0  0  0  0
   12.9900   -3.0000    0.0000 C   0  0  0  0  0  0  0  0  0  0  0  0
   10.3920   -3.0000    0.0000 C   0  0  0  0  0  0  0  0  0  0  0  0
    9.0930   -2.2500    0.0000 C   0  0  0  0  0  0  0  0  0  0  0  0
    7.7940   -3.0000    0.0000 C   0  0  3  0  0  0  0  0  0  0  0  0
    6.4950   -2.2500    0.0000 C   0  0  0  0  0  0  0  0  0  0  0  0
    5.1960   -3.0000    0.0000 S   0  0  0  0  0  0  0  0  0  0  0  0
    4.2320   -4.1490    0.0000 O   0  0  0  0  0  0  0  0  0  0  0  0
    6.1600   -4.1490    0.0000 O   0  0  0  0  0  0  0  0  0  0  0  0
    3.8970   -2.2500    0.0000 N   0  0  0  0  0  0  0  0  0  0  0  0
    3.8970   -0.7500    0.0000 C   0  0  0  0  0  0  0  0  0  0  0  0
    2.5980    0.0000    0.0000 C   0  0  0  0  0  0  0  0  0  0  0  0
    1.2990   -0.7500    0.0000 N   0  0  0  0  0  0  0  0  0  0  0  0
    1.2990   -2.2500    0.0000 C   0  0  0  0  0  0  0  0  0  0  0  0
    2.5980   -3.0000    0.0000 C   0  0  0  0  0  0  0  0  0  0  0  0
    0.0000    0.0000    0.0000 C   0  0  0  0  0  0  0  0  0  0  0  0
    0.0000    1.5000    0.0000 C   0  0  0  0  0  0  0  0  0  0  0  0
   -1.2990    2.2500    0.0000 C   0  0  0  0  0  0  0  0  0  0  0  0
   -2.5980    1.5000    0.0000 C   0  0  0  0  0  0  0  0  0  0  0  0
   -2.5980    0.0000    0.0000 C   0  0  0  0  0  0  0  0  0  0  0  0
   -1.2990   -0.7500    0.0000 N   0  0  0  0  0  0  0  0  0  0  0  0
   -3.8970    2.2500    0.0000 Cl  0  0  0  0  0  0  0  0  0  0  0  0
    7.7940   -4.5000    0.0000 N   0  0  0  0  0  0  0  0  0  0  0  0
    9.0930   -5.2500    0.0000 C   0  0  0  0  0  0  0  0  0  0  0  0
    9.0930   -6.7500    0.0000 O   0  0  0  0  0  0  0  0  0  0  0  0
    6.4950   -5.2500    0.0000 O   0  0  0  0  0  0  0  0  0  0  0  0
  1  2  1  0  0  0  0
  1  6  2  0  0  0  0
  2  3  2  0  0  0  0
  3  4  1  0  0  0  0
  4  5  2  0  0  0  0
  5  6  1  0  0  0  0
  5  7  1  0  0  0  0
  7  8  1  0  0  0  0
  8  9  1  0  0  0  0
  9 10  1  0  0  0  0
  9 27  1  0  0  0  0
 10 11  1  0  0  0  0
 11 12  2  0  0  0  0
 11 13  2  0  0  0  0
 11 14  1  0  0  0  0
 14 15  1  0  0  0  0
 14 19  1  0  0  0  0
 15 16  1  0  0  0  0
 16 17  1  0  0  0  0
 17 18  1  0  0  0  0
 17 20  1  0  0  0  0
 18 19  1  0  0  0  0
 20 21  1  0  0  0  0
 20 25  2  0  0  0  0
 21 22  2  0  0  0  0
 22 23  1  0  0  0  0
 23 24  2  0  0  0  0
 23 26  1  0  0  0  0
 24 25  1  0  0  0  0
 27 28  1  0  0  0  0
 27 30  1  0  0  0  0
 28 29  2  0  0  0  0
M  END
>  <n>
185

>  <SMILES>
Clc1ccc(nc1)N1CCN(S(=O)(=O)CC(N(O)C=O)CCc2ncccc2)CC1

>  <IC50>
<10

>  <Class>
1

>  <NAME>
AZ5

>  <INCHI_KEY>
ANFAVNFSUAAPMH-UHFFFAOYSA-N

>  <Reference>
Mitigating the inhibition of human Bile Salt Export Pump by drugs_ opportunities provided by physicochemical property modulation,  in-silico modeling and structural modification_SI

$$$$
AZ50
  MOE2013           2D

 25 27  0  0  0  0  0  0  0  0999 V2000
    6.4950    2.2500    0.0000 C   0  0  0  0  0  0  0  0  0  0  0  0
    5.1960    1.5000    0.0000 C   0  0  0  0  0  0  0  0  0  0  0  0
    5.1960    0.0000    0.0000 O   0  0  0  0  0  0  0  0  0  0  0  0
    3.8970    2.2500    0.0000 O   0  0  0  0  0  0  0  0  0  0  0  0
    2.5980    1.5000    0.0000 C   0  0  0  0  0  0  0  0  0  0  0  0
    2.5980    0.0000    0.0000 C   0  0  0  0  0  0  0  0  0  0  0  0
    1.2990   -0.7500    0.0000 C   0  0  0  0  0  0  0  0  0  0  0  0
    0.0000    0.0000    0.0000 C   0  0  0  0  0  0  0  0  0  0  0  0
    0.0000    1.5000    0.0000 C   0  0  0  0  0  0  0  0  0  0  0  0
    1.2990    2.2500    0.0000 C   0  0  0  0  0  0  0  0  0  0  0  0
   -1.4270    1.9640    0.0000 C   0  0  0  0  0  0  0  0  0  0  0  0
   -2.3080    0.7500    0.0000 C   0  0  0  0  0  0  0  0  0  0  0  0
   -1.4270   -0.4640    0.0000 N   0  0  0  0  0  0  0  0  0  0  0  0
   -1.8900   -1.8900    0.0000 C   0  0  0  0  0  0  0  0  0  0  0  0
   -3.3570   -2.2020    0.0000 C   0  0  0  0  0  0  0  0  0  0  0  0
   -4.3610   -1.0870    0.0000 C   0  0  0  0  0  0  0  0  0  0  0  0
   -5.8280   -1.3990    0.0000 C   0  0  0  0  0  0  0  0  0  0  0  0
   -6.2920   -2.8260    0.0000 C   0  0  0  0  0  0  0  0  0  0  0  0
   -5.2880   -3.9400    0.0000 C   0  0  0  0  0  0  0  0  0  0  0  0
   -3.8210   -3.6290    0.0000 C   0  0  0  0  0  0  0  0  0  0  0  0
   -5.7520   -5.3670    0.0000 Cl  0  0  0  0  0  0  0  0  0  0  0  0
   -7.7590   -3.1380    0.0000 Cl  0  0  0  0  0  0  0  0  0  0  0  0
   -3.8080    0.7500    0.0000 C   0  0  0  0  0  0  0  0  0  0  0  0
   -4.5580    2.0490    0.0000 O   0  0  0  0  0  0  0  0  0  0  0  0
   -4.5580   -0.5490    0.0000 O   0  0  0  0  0  0  0  0  0  0  0  0
  1  2  1  0  0  0  0
  2  3  2  0  0  0  0
  2  4  1  0  0  0  0
  4  5  1  0  0  0  0
  5  6  1  0  0  0  0
  5 10  2  0  0  0  0
  6  7  2  0  0  0  0
  7  8  1  0  0  0  0
  8  9  2  0  0  0  0
  8 13  1  0  0  0  0
  9 10  1  0  0  0  0
  9 11  1  0  0  0  0
 11 12  2  0  0  0  0
 12 13  1  0  0  0  0
 12 23  1  0  0  0  0
 13 14  1  0  0  0  0
 14 15  1  0  0  0  0
 15 16  1  0  0  0  0
 15 20  2  0  0  0  0
 16 17  2  0  0  0  0
 17 18  1  0  0  0  0
 18 19  2  0  0  0  0
 18 22  1  0  0  0  0
 19 20  1  0  0  0  0
 19 21  1  0  0  0  0
 23 24  2  0  0  0  0
 23 25  1  0  0  0  0
M  END
>  <n>
186

>  <SMILES>
Clc1cc(ccc1Cl)Cn1c2c(cc1C(O)=O)cc(OC(=O)C)cc2

>  <IC50>
55.21

>  <Class>
0

>  <NAME>
AZ50

>  <INCHI_KEY>
ZLYCYSWLGCTNHX-UHFFFAOYSA-N

>  <Reference>
Mitigating the inhibition of human Bile Salt Export Pump by drugs_ opportunities provided by physicochemical property modulation,  in-silico modeling and structural modification_SI

$$$$
AZ51
  MOE2013           2D

 29 31  0  0  1  0  0  0  0  0999 V2000
    5.1680   -0.5430    0.0000 C   0  0  0  0  0  0  0  0  0  0  0  0
    3.7970   -1.1530    0.0000 C   0  0  0  0  0  0  0  0  0  0  0  0
    3.6410   -2.6450    0.0000 O   0  0  0  0  0  0  0  0  0  0  0  0
    2.5840   -0.2720    0.0000 N   0  0  0  0  0  0  0  0  0  0  0  0
    1.2140   -0.8820    0.0000 C   0  0  0  0  0  0  0  0  0  0  0  0
    0.0000    0.0000    0.0000 C   0  0  3  0  0  0  0  0  0  0  0  0
    0.0000    1.5000    0.0000 C   0  0  0  0  0  0  0  0  0  0  0  0
   -1.4270    1.9640    0.0000 N   0  0  0  0  0  0  0  0  0  0  0  0
   -2.3080    0.7500    0.0000 C   0  0  0  0  0  0  0  0  0  0  0  0
   -3.8080    0.7500    0.0000 O   0  0  0  0  0  0  0  0  0  0  0  0
   -1.4270   -0.4640    0.0000 O   0  0  0  0  0  0  0  0  0  0  0  0
   -1.8900    3.3900    0.0000 C   0  0  0  0  0  0  0  0  0  0  0  0
   -0.8860    4.5050    0.0000 C   0  0  0  0  0  0  0  0  0  0  0  0
   -1.3500    5.9310    0.0000 C   0  0  0  0  0  0  0  0  0  0  0  0
   -2.8170    6.2430    0.0000 C   0  0  0  0  0  0  0  0  0  0  0  0
   -3.8210    5.1290    0.0000 C   0  0  0  0  0  0  0  0  0  0  0  0
   -3.3570    3.7020    0.0000 C   0  0  0  0  0  0  0  0  0  0  0  0
   -5.2880    5.4400    0.0000 F   0  0  0  0  0  0  0  0  0  0  0  0
   -3.2810    7.6700    0.0000 C   0  0  0  0  0  0  0  0  0  0  0  0
   -2.2770    8.7850    0.0000 C   0  0  0  0  0  0  0  0  0  0  0  0
   -2.7400   10.2110    0.0000 C   0  0  0  0  0  0  0  0  0  0  0  0
   -4.2080   10.5230    0.0000 N   0  0  0  0  0  0  0  0  0  0  0  0
   -5.2110    9.4080    0.0000 C   0  0  0  0  0  0  0  0  0  0  0  0
   -4.7480    7.9820    0.0000 C   0  0  0  0  0  0  0  0  0  0  0  0
   -4.6710   11.9500    0.0000 C   0  0  0  0  0  0  0  0  0  0  0  0
   -3.6680   13.0640    0.0000 O   0  0  0  0  0  0  0  0  0  0  0  0
   -6.1380   12.2620    0.0000 C   0  0  0  0  0  0  0  0  0  0  0  0
   -6.6020   13.6880    0.0000 O   0  0  0  0  0  0  0  0  0  0  0  0
   -0.3460    7.0460    0.0000 F   0  0  0  0  0  0  0  0  0  0  0  0
  1  2  1  0  0  0  0
  2  3  2  0  0  0  0
  2  4  1  0  0  0  0
  4  5  1  0  0  0  0
  5  6  1  0  0  0  0
  6  7  1  0  0  0  0
  6 11  1  0  0  0  0
  7  8  1  0  0  0  0
  8  9  1  0  0  0  0
  8 12  1  0  0  0  0
  9 10  2  0  0  0  0
  9 11  1  0  0  0  0
 12 13  1  0  0  0  0
 12 17  2  0  0  0  0
 13 14  2  0  0  0  0
 14 15  1  0  0  0  0
 14 29  1  0  0  0  0
 15 16  2  0  0  0  0
 15 19  1  0  0  0  0
 16 17  1  0  0  0  0
 16 18  1  0  0  0  0
 19 20  2  0  0  0  0
 19 24  1  0  0  0  0
 20 21  1  0  0  0  0
 21 22  1  0  0  0  0
 22 23  1  0  0  0  0
 22 25  1  0  0  0  0
 23 24  1  0  0  0  0
 25 26  2  0  0  0  0
 25 27  1  0  0  0  0
 27 28  1  0  0  0  0
M  END
>  <n>
187

>  <SMILES>
Fc1cc(N2C[C@@H](OC2=O)CNC(=O)C)cc(F)c1C=1CCN(CC=1)C(=O)CO

>  <IC50>
>1000

>  <Class>
0

>  <NAME>
AZ51

>  <INCHI_KEY>
XZHOFWILXKYNOE-AWEZNQCLSA-N

>  <Reference>
Mitigating the inhibition of human Bile Salt Export Pump by drugs_ opportunities provided by physicochemical property modulation,  in-silico modeling and structural modification_SI

$$$$
AZ54
  MOE2013           2D

 24 26  0  0  1  0  0  0  0  0999 V2000
   11.6620   -6.8750    0.0000 C   0  0  0  0  0  0  0  0  0  0  0  0
   10.9120   -5.5760    0.0000 C   0  0  0  0  0  0  0  0  0  0  0  0
   11.6620   -4.2770    0.0000 O   0  0  0  0  0  0  0  0  0  0  0  0
    9.4120   -5.5760    0.0000 N   0  0  0  0  0  0  0  0  0  0  0  0
    8.6620   -4.2770    0.0000 C   0  0  0  0  0  0  0  0  0  0  0  0
    7.1620   -4.2770    0.0000 C   0  0  3  0  0  0  0  0  0  0  0  0
    6.2810   -3.0630    0.0000 C   0  0  0  0  0  0  0  0  0  0  0  0
    4.8540   -3.5270    0.0000 N   0  0  0  0  0  0  0  0  0  0  0  0
    4.8540   -5.0270    0.0000 C   0  0  0  0  0  0  0  0  0  0  0  0
    3.6410   -5.9080    0.0000 O   0  0  0  0  0  0  0  0  0  0  0  0
    6.2810   -5.4900    0.0000 O   0  0  0  0  0  0  0  0  0  0  0  0
    3.6410   -2.6450    0.0000 C   0  0  0  0  0  0  0  0  0  0  0  0
    3.7970   -1.1530    0.0000 C   0  0  0  0  0  0  0  0  0  0  0  0
    2.5840   -0.2720    0.0000 C   0  0  0  0  0  0  0  0  0  0  0  0
    1.2140   -0.8820    0.0000 C   0  0  0  0  0  0  0  0  0  0  0  0
    1.0570   -2.3740    0.0000 C   0  0  0  0  0  0  0  0  0  0  0  0
    2.2700   -3.2550    0.0000 C   0  0  0  0  0  0  0  0  0  0  0  0
   -0.3140   -2.9840    0.0000 F   0  0  0  0  0  0  0  0  0  0  0  0
    0.0000    0.0000    0.0000 N   0  0  0  0  0  0  0  0  0  0  0  0
    0.0000    1.5000    0.0000 C   0  0  0  0  0  0  0  0  0  0  0  0
   -1.4270    1.9640    0.0000 C   0  0  0  0  0  0  0  0  0  0  0  0
   -2.3080    0.7500    0.0000 N   0  0  0  0  0  0  0  0  0  0  0  0
   -1.4270   -0.4640    0.0000 C   0  0  0  0  0  0  0  0  0  0  0  0
   -1.8900    3.3900    0.0000 Br  0  0  0  0  0  0  0  0  0  0  0  0
  1  2  1  0  0  0  0
  2  3  2  0  0  0  0
  2  4  1  0  0  0  0
  4  5  1  0  0  0  0
  5  6  1  0  0  0  0
  6  7  1  0  0  0  0
  6 11  1  0  0  0  0
  7  8  1  0  0  0  0
  8  9  1  0  0  0  0
  8 12  1  0  0  0  0
  9 10  2  0  0  0  0
  9 11  1  0  0  0  0
 12 13  1  0  0  0  0
 12 17  2  0  0  0  0
 13 14  2  0  0  0  0
 14 15  1  0  0  0  0
 15 16  2  0  0  0  0
 15 19  1  0  0  0  0
 16 17  1  0  0  0  0
 16 18  1  0  0  0  0
 19 20  1  0  0  0  0
 19 23  1  0  0  0  0
 20 21  2  0  0  0  0
 21 22  1  0  0  0  0
 21 24  1  0  0  0  0
 22 23  2  0  0  0  0
M  END
>  <n>
190

>  <SMILES>
Brc1ncn(c1)-c1ccc(N2C[C@@H](OC2=O)CNC(=O)C)cc1F

>  <IC50>
349.2

>  <Class>
0

>  <NAME>
AZ54

>  <INCHI_KEY>
JVUFKEBEKRLMKB-NSHDSACASA-N

>  <Reference>
Mitigating the inhibition of human Bile Salt Export Pump by drugs_ opportunities provided by physicochemical property modulation,  in-silico modeling and structural modification_SI

$$$$
AZ55
  MOE2013           2D

 31 33  0  0  1  0  0  0  0  0999 V2000
    5.1960   -9.0000    0.0000 C   0  0  0  0  0  0  0  0  0  0  0  0
    5.1960   -7.5000    0.0000 C   0  0  0  0  0  0  0  0  0  0  0  0
    3.8970   -6.7500    0.0000 C   0  0  0  0  0  0  0  0  0  0  0  0
    2.5980   -7.5000    0.0000 C   0  0  0  0  0  0  0  0  0  0  0  0
    2.5980   -9.0000    0.0000 N   0  0  0  0  0  0  0  0  0  0  0  0
    3.8970   -9.7500    0.0000 C   0  0  0  0  0  0  0  0  0  0  0  0
    3.8970   -5.2500    0.0000 C   0  0  0  0  0  0  0  0  0  0  0  0
    2.5980   -4.5000    0.0000 C   0  0  0  0  0  0  0  0  0  0  0  0
    2.5980   -3.0000    0.0000 C   0  0  3  0  0  0  0  0  0  0  0  0
    1.2990   -2.2500    0.0000 C   0  0  0  0  0  0  0  0  0  0  0  0
    1.2990   -0.7500    0.0000 S   0  0  0  0  0  0  0  0  0  0  0  0
    2.7760   -1.0100    0.0000 O   0  0  0  0  0  0  0  0  0  0  0  0
    1.8120    0.6600    0.0000 O   0  0  0  0  0  0  0  0  0  0  0  0
    0.0000    0.0000    0.0000 N   0  0  0  0  0  0  0  0  0  0  0  0
    0.0000    1.5000    0.0000 C   0  0  0  0  0  0  0  0  0  0  0  0
   -1.2990    2.2500    0.0000 C   0  0  0  0  0  0  0  0  0  0  0  0
   -2.5980    1.5000    0.0000 C   0  0  0  0  0  0  0  0  0  0  0  0
   -2.5980    0.0000    0.0000 C   0  0  0  0  0  0  0  0  0  0  0  0
   -1.2990   -0.7500    0.0000 C   0  0  0  0  0  0  0  0  0  0  0  0
   -3.8970    2.2500    0.0000 O   0  0  0  0  0  0  0  0  0  0  0  0
   -3.8970    3.7500    0.0000 C   0  0  0  0  0  0  0  0  0  0  0  0
   -2.5980    4.5000    0.0000 C   0  0  0  0  0  0  0  0  0  0  0  0
   -2.5980    6.0000    0.0000 C   0  0  0  0  0  0  0  0  0  0  0  0
   -3.8970    6.7500    0.0000 C   0  0  0  0  0  0  0  0  0  0  0  0
   -5.1960    6.0000    0.0000 C   0  0  0  0  0  0  0  0  0  0  0  0
   -5.1960    4.5000    0.0000 N   0  0  0  0  0  0  0  0  0  0  0  0
   -3.8970    8.2500    0.0000 Cl  0  0  0  0  0  0  0  0  0  0  0  0
    3.8970   -2.2500    0.0000 N   0  0  0  0  0  0  0  0  0  0  0  0
    5.1960   -3.0000    0.0000 C   0  0  0  0  0  0  0  0  0  0  0  0
    6.4950   -2.2500    0.0000 O   0  0  0  0  0  0  0  0  0  0  0  0
    3.8970   -0.7500    0.0000 O   0  0  0  0  0  0  0  0  0  0  0  0
  1  2  1  0  0  0  0
  1  6  2  0  0  0  0
  2  3  2  0  0  0  0
  3  4  1  0  0  0  0
  3  7  1  0  0  0  0
  4  5  2  0  0  0  0
  5  6  1  0  0  0  0
  7  8  1  0  0  0  0
  8  9  1  0  0  0  0
  9 10  1  0  0  0  0
  9 28  1  0  0  0  0
 10 11  1  0  0  0  0
 11 12  2  0  0  0  0
 11 13  2  0  0  0  0
 11 14  1  0  0  0  0
 14 15  1  0  0  0  0
 14 19  1  0  0  0  0
 15 16  1  0  0  0  0
 16 17  1  0  0  0  0
 17 18  1  0  0  0  0
 17 20  1  0  0  0  0
 18 19  1  0  0  0  0
 20 21  1  0  0  0  0
 21 22  1  0  0  0  0
 21 26  2  0  0  0  0
 22 23  2  0  0  0  0
 23 24  1  0  0  0  0
 24 25  2  0  0  0  0
 24 27  1  0  0  0  0
 25 26  1  0  0  0  0
 28 29  1  0  0  0  0
 28 31  1  0  0  0  0
 29 30  2  0  0  0  0
M  END
>  <n>
191

>  <SMILES>
Clc1ccc(OC2CCN(S(=O)(=O)CC(N(O)C=O)CCc3cccnc3)CC2)nc1

>  <IC50>
<10

>  <Class>
1

>  <NAME>
AZ55

>  <INCHI_KEY>
QKKJQNKDILCHFW-UHFFFAOYSA-N

>  <Reference>
Mitigating the inhibition of human Bile Salt Export Pump by drugs_ opportunities provided by physicochemical property modulation,  in-silico modeling and structural modification_SI

$$$$
AZ59
  MOE2013           2D

 27 30  0  0  0  0  0  0  0  0999 V2000
    1.2140   -0.8820    0.0000 C   0  0  0  0  0  0  0  0  0  0  0  0
    0.0000    0.0000    0.0000 C   0  0  0  0  0  0  0  0  0  0  0  0
    0.0000    1.5000    0.0000 C   0  0  0  0  0  0  0  0  0  0  0  0
   -1.4270    1.9640    0.0000 C   0  0  0  0  0  0  0  0  0  0  0  0
   -2.3080    0.7500    0.0000 N   0  0  0  0  0  0  0  0  0  0  0  0
   -1.4270   -0.4640    0.0000 N   0  0  0  0  0  0  0  0  0  0  0  0
   -1.8900    3.3900    0.0000 N   0  0  0  0  0  0  0  0  0  0  0  0
   -3.3570    3.7020    0.0000 C   0  0  0  0  0  0  0  0  0  0  0  0
   -3.8210    5.1290    0.0000 C   0  0  0  0  0  0  0  0  0  0  0  0
   -5.2880    5.4400    0.0000 C   0  0  0  0  0  0  0  0  0  0  0  0
   -6.2920    4.3260    0.0000 N   0  0  0  0  0  0  0  0  0  0  0  0
   -5.8280    2.8990    0.0000 C   0  0  0  0  0  0  0  0  0  0  0  0
   -4.3610    2.5870    0.0000 N   0  0  0  0  0  0  0  0  0  0  0  0
   -6.8320    1.7840    0.0000 N   0  0  0  0  0  0  0  0  0  0  0  0
   -8.2990    2.0960    0.0000 C   0  0  0  0  0  0  0  0  0  0  0  0
   -9.3030    0.9820    0.0000 C   0  0  0  0  0  0  0  0  0  0  0  0
  -10.7950    1.1380    0.0000 C   0  0  0  0  0  0  0  0  0  0  0  0
  -11.4050   -0.2320    0.0000 C   0  0  0  0  0  0  0  0  0  0  0  0
  -10.2900   -1.2360    0.0000 N   0  0  0  0  0  0  0  0  0  0  0  0
   -8.9910   -0.4860    0.0000 O   0  0  0  0  0  0  0  0  0  0  0  0
  -12.8720   -0.5440    0.0000 C   0  0  0  0  0  0  0  0  0  0  0  0
  -13.8760    0.5710    0.0000 C   0  0  0  0  0  0  0  0  0  0  0  0
  -15.3430    0.2590    0.0000 C   0  0  0  0  0  0  0  0  0  0  0  0
  -15.8060   -1.1680    0.0000 C   0  0  0  0  0  0  0  0  0  0  0  0
  -14.8030   -2.2820    0.0000 C   0  0  0  0  0  0  0  0  0  0  0  0
  -13.3360   -1.9700    0.0000 N   0  0  0  0  0  0  0  0  0  0  0  0
   -2.8170    6.2430    0.0000 Cl  0  0  0  0  0  0  0  0  0  0  0  0
  1  2  1  0  0  0  0
  2  3  1  0  0  0  0
  2  6  2  0  0  0  0
  3  4  2  0  0  0  0
  4  5  1  0  0  0  0
  4  7  1  0  0  0  0
  5  6  1  0  0  0  0
  7  8  1  0  0  0  0
  8  9  1  0  0  0  0
  8 13  2  0  0  0  0
  9 10  2  0  0  0  0
  9 27  1  0  0  0  0
 10 11  1  0  0  0  0
 11 12  2  0  0  0  0
 12 13  1  0  0  0  0
 12 14  1  0  0  0  0
 14 15  1  0  0  0  0
 15 16  1  0  0  0  0
 16 17  2  0  0  0  0
 16 20  1  0  0  0  0
 17 18  1  0  0  0  0
 18 19  2  0  0  0  0
 18 21  1  0  0  0  0
 19 20  1  0  0  0  0
 21 22  1  0  0  0  0
 21 26  2  0  0  0  0
 22 23  2  0  0  0  0
 23 24  1  0  0  0  0
 24 25  2  0  0  0  0
 25 26  1  0  0  0  0
M  END
>  <n>
195

>  <SMILES>
Clc1cnc(nc1Nc1[nH]nc(c1)C)NCc1onc(c1)-c1ncccc1

>  <IC50>
<10

>  <Class>
1

>  <NAME>
AZ59

>  <INCHI_KEY>
KBFMKHFVONCAAY-UHFFFAOYSA-N

>  <Reference>
Mitigating the inhibition of human Bile Salt Export Pump by drugs_ opportunities provided by physicochemical property modulation,  in-silico modeling and structural modification_SI

$$$$
AZ60
  MOE2013           2D

 27 29  0  0  0  0  0  0  0  0999 V2000
    2.5980   -4.5000    0.0000 C   0  0  0  0  0  0  0  0  0  0  0  0
    2.5980   -3.0000    0.0000 C   0  0  0  0  0  0  0  0  0  0  0  0
    1.2990   -2.2500    0.0000 N   0  0  0  0  0  0  0  0  0  0  0  0
    0.0000   -3.0000    0.0000 C   0  0  0  0  0  0  0  0  0  0  0  0
    0.0000   -4.5000    0.0000 C   0  0  0  0  0  0  0  0  0  0  0  0
    1.2990   -0.7500    0.0000 C   0  0  0  0  0  0  0  0  0  0  0  0
    2.5980    0.0000    0.0000 O   0  0  0  0  0  0  0  0  0  0  0  0
    0.0000    0.0000    0.0000 C   0  0  0  0  0  0  0  0  0  0  0  0
    0.0000    1.5000    0.0000 C   0  0  0  0  0  0  0  0  0  0  0  0
   -1.2990    2.2500    0.0000 C   0  0  0  0  0  0  0  0  0  0  0  0
   -2.5980    1.5000    0.0000 C   0  0  0  0  0  0  0  0  0  0  0  0
   -2.5980    0.0000    0.0000 C   0  0  0  0  0  0  0  0  0  0  0  0
   -1.2990   -0.7500    0.0000 C   0  0  0  0  0  0  0  0  0  0  0  0
   -3.8970    2.2500    0.0000 C   0  0  0  0  0  0  0  0  0  0  0  0
   -3.8970    3.7500    0.0000 C   0  0  0  0  0  0  0  0  0  0  0  0
   -2.5980    4.5000    0.0000 C   0  0  0  0  0  0  0  0  0  0  0  0
   -2.5980    6.0000    0.0000 C   0  0  0  0  0  0  0  0  0  0  0  0
   -3.8970    6.7500    0.0000 N   0  0  0  0  0  0  0  0  0  0  0  0
   -5.1960    6.0000    0.0000 C   0  0  0  0  0  0  0  0  0  0  0  0
   -5.1960    4.5000    0.0000 C   0  0  0  0  0  0  0  0  0  0  0  0
   -5.1960    1.5000    0.0000 C   0  0  0  0  0  0  0  0  0  0  0  0
   -6.4950    2.2500    0.0000 C   0  0  0  0  0  0  0  0  0  0  0  0
   -7.7940    1.5000    0.0000 C   0  0  0  0  0  0  0  0  0  0  0  0
   -7.7940    0.0000    0.0000 C   0  0  0  0  0  0  0  0  0  0  0  0
   -6.4950   -0.7500    0.0000 C   0  0  0  0  0  0  0  0  0  0  0  0
   -5.1960    0.0000    0.0000 C   0  0  0  0  0  0  0  0  0  0  0  0
   -6.4950   -2.2500    0.0000 F   0  0  0  0  0  0  0  0  0  0  0  0
  1  2  1  0  0  0  0
  2  3  1  0  0  0  0
  3  4  1  0  0  0  0
  3  6  1  0  0  0  0
  4  5  1  0  0  0  0
  6  7  2  0  0  0  0
  6  8  1  0  0  0  0
  8  9  1  0  0  0  0
  8 13  2  0  0  0  0
  9 10  2  0  0  0  0
 10 11  1  0  0  0  0
 11 12  2  0  0  0  0
 11 14  1  0  0  0  0
 12 13  1  0  0  0  0
 14 15  2  0  0  0  0
 14 21  1  0  0  0  0
 15 16  1  0  0  0  0
 15 20  1  0  0  0  0
 16 17  1  0  0  0  0
 17 18  1  0  0  0  0
 18 19  1  0  0  0  0
 19 20  1  0  0  0  0
 21 22  1  0  0  0  0
 21 26  2  0  0  0  0
 22 23  2  0  0  0  0
 23 24  1  0  0  0  0
 24 25  2  0  0  0  0
 25 26  1  0  0  0  0
 25 27  1  0  0  0  0
M  END
>  <n>
197

>  <SMILES>
Fc1cc(ccc1)C(c1ccc(cc1)C(=O)N(CC)CC)=C1CCNCC1

>  <IC50>
86.07

>  <Class>
0

>  <NAME>
AZ60

>  <INCHI_KEY>
LPYYOHCTDGHYSI-UHFFFAOYSA-N

>  <Reference>
Mitigating the inhibition of human Bile Salt Export Pump by drugs_ opportunities provided by physicochemical property modulation,  in-silico modeling and structural modification_SI

$$$$
AZ61
  MOE2013           2D

 15 16  0  0  1  0  0  0  0  0999 V2000
    2.5840   -0.2720    0.0000 C   0  0  0  0  0  0  0  0  0  0  0  0
    1.2140   -0.8820    0.0000 C   0  0  0  0  0  0  0  0  0  0  0  0
    0.0000    0.0000    0.0000 C   0  0  3  0  0  0  0  0  0  0  0  0
    0.0000    1.5000    0.0000 C   0  0  3  0  0  0  0  0  0  0  0  0
   -1.4270    1.9640    0.0000 C   0  0  0  0  0  0  0  0  0  0  0  0
   -2.3080    0.7500    0.0000 O   0  0  0  0  0  0  0  0  0  0  0  0
   -1.4270   -0.4640    0.0000 C   0  0  0  0  0  0  0  0  0  0  0  0
   -1.8900   -1.8900    0.0000 O   0  0  0  0  0  0  0  0  0  0  0  0
    1.2140    2.3820    0.0000 C   0  0  0  0  0  0  0  0  0  0  0  0
    1.0570    3.8740    0.0000 C   0  0  0  0  0  0  0  0  0  0  0  0
    2.1720    4.8770    0.0000 C   0  0  0  0  0  0  0  0  0  0  0  0
    1.5610    6.2480    0.0000 N   0  0  0  0  0  0  0  0  0  0  0  0
    0.0700    6.0910    0.0000 C   0  0  0  0  0  0  0  0  0  0  0  0
   -0.2420    4.6240    0.0000 N   0  0  0  0  0  0  0  0  0  0  0  0
   -1.6130    4.0130    0.0000 C   0  0  0  0  0  0  0  0  0  0  0  0
  1  2  1  0  0  0  0
  2  3  1  0  0  0  0
  3  4  1  0  0  0  0
  3  7  1  0  0  0  0
  4  5  1  0  0  0  0
  4  9  1  0  0  0  0
  5  6  1  0  0  0  0
  6  7  1  0  0  0  0
  7  8  2  0  0  0  0
  9 10  1  0  0  0  0
 10 11  2  0  0  0  0
 10 14  1  0  0  0  0
 11 12  1  0  0  0  0
 12 13  2  0  0  0  0
 13 14  1  0  0  0  0
 14 15  1  0  0  0  0
M  END
>  <n>
198

>  <SMILES>
O1CC(Cc2n(cnc2)C)C(CC)C1=O

>  <IC50>
>1000

>  <Class>
0

>  <NAME>
AZ61

>  <INCHI_KEY>
QCHFTSOMWOSFHM-UHFFFAOYSA-N

>  <Reference>
Mitigating the inhibition of human Bile Salt Export Pump by drugs_ opportunities provided by physicochemical property modulation,  in-silico modeling and structural modification_SI

$$$$
AZ62
  MOE2013           2D

 11 10  0  0  1  0  0  0  0  0999 V2000
    0.0000    0.0000    0.0000 C   0  0  0  0  0  0  0  0  0  0  0  0
    0.0000    1.5000    0.0000 N   0  3  0  0  0  0  0  0  0  0  0  0
    1.4770    1.2400    0.0000 C   0  0  0  0  0  0  0  0  0  0  0  0
    0.5130    2.9100    0.0000 C   0  0  0  0  0  0  0  0  0  0  0  0
   -1.2990    2.2500    0.0000 C   0  0  0  0  0  0  0  0  0  0  0  0
   -1.2990    3.7500    0.0000 C   0  0  3  0  0  0  0  0  0  0  0  0
   -2.5980    4.5000    0.0000 C   0  0  0  0  0  0  0  0  0  0  0  0
   -2.5980    6.0000    0.0000 C   0  0  0  0  0  0  0  0  0  0  0  0
   -3.8970    6.7500    0.0000 O   0  0  0  0  0  0  0  0  0  0  0  0
   -1.2990    6.7500    0.0000 O   0  5  0  0  0  0  0  0  0  0  0  0
    0.0000    4.5000    0.0000 O   0  0  0  0  0  0  0  0  0  0  0  0
  1  2  1  0  0  0  0
  2  3  1  0  0  0  0
  2  4  1  0  0  0  0
  2  5  1  0  0  0  0
  5  6  1  0  0  0  0
  6  7  1  0  0  0  0
  6 11  1  0  0  0  0
  7  8  1  0  0  0  0
  8  9  2  0  0  0  0
  8 10  1  0  0  0  0
M  CHG  1   2   1
M  CHG  1  10  -1
M  END
>  <n>
199

>  <SMILES>
OC(CC(O)=O)C[N+](C)(C)C

>  <IC50>
>1000

>  <Class>
0

>  <NAME>
AZ62

>  <INCHI_KEY>
PHIQHXFUZVPYII-UHFFFAOYSA-O

>  <Reference>
Mitigating the inhibition of human Bile Salt Export Pump by drugs_ opportunities provided by physicochemical property modulation,  in-silico modeling and structural modification_SI

$$$$
AZ67
  MOE2013           2D

 18 18  0  0  1  0  0  0  0  0999 V2000
    1.2990   -5.2500    0.0000 C   0  0  0  0  0  0  0  0  0  0  0  0
    2.5980   -4.5000    0.0000 C   0  0  3  0  0  0  0  0  0  0  0  0
    3.8970   -5.2500    0.0000 C   0  0  0  0  0  0  0  0  0  0  0  0
    3.8970   -6.7500    0.0000 C   0  0  0  0  0  0  0  0  0  0  0  0
    5.3740   -5.5100    0.0000 C   0  0  0  0  0  0  0  0  0  0  0  0
    4.4100   -3.8400    0.0000 C   0  0  0  0  0  0  0  0  0  0  0  0
    2.5980   -3.0000    0.0000 N   0  0  0  0  0  0  0  0  0  0  0  0
    1.2990   -2.2500    0.0000 C   0  0  0  0  0  0  0  0  0  0  0  0
    0.0000   -3.0000    0.0000 N   0  0  0  0  0  0  0  0  0  0  0  0
    0.0000   -4.5000    0.0000 C   0  0  0  0  0  0  0  0  0  0  0  0
    0.0000   -6.0000    0.0000 N   0  0  0  0  0  0  0  0  0  0  0  0
    1.2990   -0.7500    0.0000 N   0  0  0  0  0  0  0  0  0  0  0  0
    0.0000    0.0000    0.0000 C   0  0  0  0  0  0  0  0  0  0  0  0
    0.0000    1.5000    0.0000 C   0  0  0  0  0  0  0  0  0  0  0  0
   -1.2990    2.2500    0.0000 C   0  0  0  0  0  0  0  0  0  0  0  0
   -2.5980    1.5000    0.0000 N   0  0  0  0  0  0  0  0  0  0  0  0
   -2.5980    0.0000    0.0000 C   0  0  0  0  0  0  0  0  0  0  0  0
   -1.2990   -0.7500    0.0000 C   0  0  0  0  0  0  0  0  0  0  0  0
  1  2  1  0  0  0  0
  2  3  1  0  0  0  0
  2  7  1  0  0  0  0
  3  4  1  0  0  0  0
  3  5  1  0  0  0  0
  3  6  1  0  0  0  0
  7  8  1  0  0  0  0
  8  9  2  0  0  0  0
  8 12  1  0  0  0  0
  9 10  1  0  0  0  0
 10 11  3  0  0  0  0
 12 13  1  0  0  0  0
 13 14  2  0  0  0  0
 13 18  1  0  0  0  0
 14 15  1  0  0  0  0
 15 16  2  0  0  0  0
 16 17  1  0  0  0  0
 17 18  2  0  0  0  0
M  END
>  <n>
204

>  <SMILES>
n1ccc(NC(NC(C(C)(C)C)C)=NC#N)cc1

>  <IC50>
161.3

>  <Class>
0

>  <NAME>
AZ67

>  <INCHI_KEY>
IVVNZDGDKPTYHK-UHFFFAOYSA-N

>  <Reference>
Mitigating the inhibition of human Bile Salt Export Pump by drugs_ opportunities provided by physicochemical property modulation,  in-silico modeling and structural modification_SI

$$$$
AZ68
  MOE2013           2D

 17 17  0  0  0  0  0  0  0  0999 V2000
    1.2140   -0.8820    0.0000 C   0  0  0  0  0  0  0  0  0  0  0  0
    0.0000    0.0000    0.0000 C   0  0  0  0  0  0  0  0  0  0  0  0
    0.0000    1.5000    0.0000 C   0  0  0  0  0  0  0  0  0  0  0  0
   -1.4270    1.9640    0.0000 N   0  0  0  0  0  0  0  0  0  0  0  0
   -2.3080    0.7500    0.0000 C   0  0  0  0  0  0  0  0  0  0  0  0
   -1.4270   -0.4640    0.0000 N   0  0  0  0  0  0  0  0  0  0  0  0
    1.2140    2.3820    0.0000 C   0  0  0  0  0  0  0  0  0  0  0  0
    1.0570    3.8740    0.0000 S   0  0  0  0  0  0  0  0  0  0  0  0
    2.2700    4.7550    0.0000 C   0  0  0  0  0  0  0  0  0  0  0  0
    2.1140    6.2470    0.0000 C   0  0  0  0  0  0  0  0  0  0  0  0
    3.3270    7.1290    0.0000 N   0  0  0  0  0  0  0  0  0  0  0  0
    3.1700    8.6200    0.0000 C   0  0  0  0  0  0  0  0  0  0  0  0
    1.8000    9.2300    0.0000 N   0  0  0  0  0  0  0  0  0  0  0  0
    1.6430   10.7220    0.0000 C   0  0  0  0  0  0  0  0  0  0  0  0
    4.3840    9.5020    0.0000 N   0  0  0  0  0  0  0  0  0  0  0  0
    4.2270   10.9940    0.0000 C   0  0  0  0  0  0  0  0  0  0  0  0
    4.0700   12.4860    0.0000 N   0  0  0  0  0  0  0  0  0  0  0  0
  1  2  1  0  0  0  0
  2  3  2  0  0  0  0
  2  6  1  0  0  0  0
  3  4  1  0  0  0  0
  3  7  1  0  0  0  0
  4  5  2  0  0  0  0
  5  6  1  0  0  0  0
  7  8  1  0  0  0  0
  8  9  1  0  0  0  0
  9 10  1  0  0  0  0
 10 11  1  0  0  0  0
 11 12  2  0  0  0  0
 12 13  1  0  0  0  0
 12 15  1  0  0  0  0
 13 14  1  0  0  0  0
 15 16  1  0  0  0  0
 16 17  3  0  0  0  0
M  END
>  <n>
205

>  <SMILES>
S(Cc1nc[nH]c1C)CCN=C(NC#N)NC

>  <IC50>
>1000

>  <Class>
0

>  <NAME>
AZ68

>  <INCHI_KEY>
AOWSVIQTDMYBSD-UHFFFAOYSA-N

>  <Reference>
Mitigating the inhibition of human Bile Salt Export Pump by drugs_ opportunities provided by physicochemical property modulation,  in-silico modeling and structural modification_SI

$$$$
AZ69
  MOE2013           2D

 42 45  0  0  1  0  0  0  0  0999 V2000
    0.7430   -5.3570    0.0000 C   0  0  0  0  0  0  0  0  0  0  0  0
    2.1140   -4.7470    0.0000 C   0  0  3  0  0  0  0  0  0  0  0  0
    2.2700   -3.2550    0.0000 C   0  0  3  0  0  0  0  0  0  0  0  0
    1.0570   -2.3740    0.0000 C   0  0  3  0  0  0  0  0  0  0  0  0
   -0.3140   -2.9840    0.0000 C   0  0  3  0  0  0  0  0  0  0  0  0
   -0.4700   -4.4750    0.0000 C   0  0  3  0  0  0  0  0  0  0  0  0
   -1.8410   -5.0860    0.0000 N   0  0  0  0  0  0  0  0  0  0  0  0
   -1.5270   -2.1020    0.0000 O   0  0  0  0  0  0  0  0  0  0  0  0
   -2.8970   -2.7120    0.0000 C   0  0  3  0  0  0  0  0  0  0  0  0
   -4.1110   -1.8300    0.0000 C   0  0  3  0  0  0  0  0  0  0  0  0
   -5.4810   -2.4400    0.0000 C   0  0  3  0  0  0  0  0  0  0  0  0
   -5.6380   -3.9320    0.0000 C   0  0  3  0  0  0  0  0  0  0  0  0
   -4.4240   -4.8140    0.0000 C   0  0  3  0  0  0  0  0  0  0  0  0
   -3.0540   -4.2040    0.0000 O   0  0  0  0  0  0  0  0  0  0  0  0
   -4.5810   -6.3060    0.0000 C   0  0  0  0  0  0  0  0  0  0  0  0
   -5.9520   -6.9160    0.0000 N   0  0  0  0  0  0  0  0  0  0  0  0
   -7.0080   -4.5420    0.0000 O   0  0  0  0  0  0  0  0  0  0  0  0
   -6.6950   -1.5590    0.0000 O   0  0  0  0  0  0  0  0  0  0  0  0
   -3.9540   -0.3380    0.0000 N   0  0  0  0  0  0  0  0  0  0  0  0
    1.2140   -0.8820    0.0000 O   0  0  0  0  0  0  0  0  0  0  0  0
    0.0000    0.0000    0.0000 C   0  0  3  0  0  0  0  0  0  0  0  0
    0.0000    1.5000    0.0000 C   0  0  3  0  0  0  0  0  0  0  0  0
   -1.4270    1.9640    0.0000 C   0  0  3  0  0  0  0  0  0  0  0  0
   -2.3080    0.7500    0.0000 C   0  0  3  0  0  0  0  0  0  0  0  0
   -1.4270   -0.4640    0.0000 O   0  0  0  0  0  0  0  0  0  0  0  0
   -3.8080    0.7500    0.0000 C   0  0  0  0  0  0  0  0  0  0  0  0
   -4.5580    2.0490    0.0000 O   0  0  0  0  0  0  0  0  0  0  0  0
   -1.8900    3.3900    0.0000 O   0  0  0  0  0  0  0  0  0  0  0  0
   -0.8860    4.5050    0.0000 C   0  0  3  0  0  0  0  0  0  0  0  0
    0.5810    4.1930    0.0000 C   0  0  3  0  0  0  0  0  0  0  0  0
    1.5840    5.3080    0.0000 C   0  0  3  0  0  0  0  0  0  0  0  0
    1.1210    6.7340    0.0000 C   0  0  3  0  0  0  0  0  0  0  0  0
   -0.3460    7.0460    0.0000 C   0  0  3  0  0  0  0  0  0  0  0  0
   -1.3500    5.9310    0.0000 O   0  0  0  0  0  0  0  0  0  0  0  0
   -0.8100    8.4730    0.0000 C   0  0  0  0  0  0  0  0  0  0  0  0
    0.1940    9.5870    0.0000 N   0  0  0  0  0  0  0  0  0  0  0  0
    2.1250    7.8490    0.0000 O   0  0  0  0  0  0  0  0  0  0  0  0
    3.0520    4.9960    0.0000 O   0  0  0  0  0  0  0  0  0  0  0  0
    1.0440    2.7660    0.0000 N   0  0  0  0  0  0  0  0  0  0  0  0
    1.2140    2.3820    0.0000 O   0  0  0  0  0  0  0  0  0  0  0  0
    3.6410   -2.6450    0.0000 O   0  0  0  0  0  0  0  0  0  0  0  0
    3.3270   -5.6290    0.0000 N   0  0  0  0  0  0  0  0  0  0  0  0
  1  2  1  0  0  0  0
  1  6  1  0  0  0  0
  2  3  1  0  0  0  0
  2 42  1  0  0  0  0
  3  4  1  0  0  0  0
  3 41  1  0  0  0  0
  4  5  1  0  0  0  0
  4 20  1  0  0  0  0
  5  6  1  0  0  0  0
  5  8  1  0  0  0  0
  6  7  1  0  0  0  0
  8  9  1  0  0  0  0
  9 10  1  0  0  0  0
  9 14  1  0  0  0  0
 10 11  1  0  0  0  0
 10 19  1  0  0  0  0
 11 12  1  0  0  0  0
 11 18  1  0  0  0  0
 12 13  1  0  0  0  0
 12 17  1  0  0  0  0
 13 14  1  0  0  0  0
 13 15  1  0  0  0  0
 15 16  1  0  0  0  0
 20 21  1  0  0  0  0
 21 22  1  0  0  0  0
 21 25  1  0  0  0  0
 22 23  1  0  0  0  0
 22 40  1  0  0  0  0
 23 24  1  0  0  0  0
 23 28  1  0  0  0  0
 24 25  1  0  0  0  0
 24 26  1  0  0  0  0
 26 27  1  0  0  0  0
 28 29  1  0  0  0  0
 29 30  1  0  0  0  0
 29 34  1  0  0  0  0
 30 31  1  0  0  0  0
 30 39  1  0  0  0  0
 31 32  1  0  0  0  0
 31 38  1  0  0  0  0
 32 33  1  0  0  0  0
 32 37  1  0  0  0  0
 33 34  1  0  0  0  0
 33 35  1  0  0  0  0
 35 36  1  0  0  0  0
M  END
>  <n>
206

>  <SMILES>
O1C(CN)C(O)C(O)C(N)C1OC1C(O)C(OC1CO)OC1C(OC2OC(CN)C(O)C(O)C2N)C(N)CC(N)C1O

>  <IC50>
>1000

>  <Class>
0

>  <NAME>
AZ69

>  <INCHI_KEY>
PGBHMTALBVVCIT-UHFFFAOYSA-N

>  <Reference>
Mitigating the inhibition of human Bile Salt Export Pump by drugs_ opportunities provided by physicochemical property modulation,  in-silico modeling and structural modification_SI

$$$$
AZ70
  MOE2013           2D

 10 10  0  0  0  0  0  0  0  0999 V2000
    1.2990   -0.7500    0.0000 C   0  0  0  0  0  0  0  0  0  0  0  0
    0.0000    0.0000    0.0000 N   0  3  0  0  0  0  0  0  0  0  0  0
    0.0000    1.5000    0.0000 C   0  0  0  0  0  0  0  0  0  0  0  0
   -1.2990    2.2500    0.0000 C   0  0  0  0  0  0  0  0  0  0  0  0
   -2.5980    1.5000    0.0000 C   0  0  0  0  0  0  0  0  0  0  0  0
   -2.5980    0.0000    0.0000 C   0  0  0  0  0  0  0  0  0  0  0  0
   -1.2990   -0.7500    0.0000 C   0  0  0  0  0  0  0  0  0  0  0  0
   -1.2990   -2.2500    0.0000 C   0  0  0  0  0  0  0  0  0  0  0  0
   -2.5980   -3.0000    0.0000 N   0  0  0  0  0  0  0  0  0  0  0  0
   -2.5980   -4.5000    0.0000 O   0  0  0  0  0  0  0  0  0  0  0  0
  1  2  1  0  0  0  0
  2  3  1  0  0  0  0
  2  7  2  0  0  0  0
  3  4  2  0  0  0  0
  4  5  1  0  0  0  0
  5  6  2  0  0  0  0
  6  7  1  0  0  0  0
  7  8  1  0  0  0  0
  8  9  2  0  0  0  0
  9 10  1  0  0  0  0
M  CHG  1   2   1
M  END
>  <n>
208

>  <SMILES>
ON=Cc1[n+](cccc1)C

>  <IC50>
>1000

>  <Class>
0

>  <NAME>
AZ70

>  <INCHI_KEY>
JBKPUQTUERUYQE-UHFFFAOYSA-O

>  <Reference>
Mitigating the inhibition of human Bile Salt Export Pump by drugs_ opportunities provided by physicochemical property modulation,  in-silico modeling and structural modification_SI

$$$$
AZ72
  MOE2013           2D

 15 15  0  0  0  0  0  0  0  0999 V2000
    2.5980   -3.0000    0.0000 C   0  0  0  0  0  0  0  0  0  0  0  0
    1.2990   -2.2500    0.0000 C   0  0  0  0  0  0  0  0  0  0  0  0
    1.2990   -0.7500    0.0000 N   0  0  0  0  0  0  0  0  0  0  0  0
    0.0000    0.0000    0.0000 C   0  0  0  0  0  0  0  0  0  0  0  0
    0.0000    1.5000    0.0000 C   0  0  0  0  0  0  0  0  0  0  0  0
   -1.2990    2.2500    0.0000 C   0  0  0  0  0  0  0  0  0  0  0  0
   -2.5980    1.5000    0.0000 C   0  0  0  0  0  0  0  0  0  0  0  0
   -2.5980    0.0000    0.0000 C   0  0  0  0  0  0  0  0  0  0  0  0
   -1.2990   -0.7500    0.0000 C   0  0  0  0  0  0  0  0  0  0  0  0
   -1.2990   -2.2500    0.0000 C   0  0  0  0  0  0  0  0  0  0  0  0
    2.5980    0.0000    0.0000 C   0  0  0  0  0  0  0  0  0  0  0  0
    2.5980    1.5000    0.0000 O   0  0  0  0  0  0  0  0  0  0  0  0
    3.8970   -0.7500    0.0000 C   0  0  0  0  0  0  0  0  0  0  0  0
    5.1960    0.0000    0.0000 C   0  0  0  0  0  0  0  0  0  0  0  0
    6.4950   -0.7500    0.0000 C   0  0  0  0  0  0  0  0  0  0  0  0
  1  2  1  0  0  0  0
  2  3  1  0  0  0  0
  3  4  1  0  0  0  0
  3 11  1  0  0  0  0
  4  5  1  0  0  0  0
  4  9  2  0  0  0  0
  5  6  2  0  0  0  0
  6  7  1  0  0  0  0
  7  8  2  0  0  0  0
  8  9  1  0  0  0  0
  9 10  1  0  0  0  0
 11 12  2  0  0  0  0
 11 13  1  0  0  0  0
 13 14  2  0  0  0  0
 14 15  1  0  0  0  0
M  END
>  <n>
210

>  <SMILES>
O=C(N(CC)c1ccccc1C)C=CC

>  <IC50>
109.5

>  <Class>
0

>  <NAME>
AZ72

>  <INCHI_KEY>
DNTGGZPQPQTDQF-UHFFFAOYSA-N

>  <Reference>
Mitigating the inhibition of human Bile Salt Export Pump by drugs_ opportunities provided by physicochemical property modulation,  in-silico modeling and structural modification_SI

$$$$
AZ73
  MOE2013           2D

 37 39  0  0  0  0  0  0  0  0999 V2000
    7.7940    4.5000    0.0000 C   0  0  0  0  0  0  0  0  0  0  0  0
    6.4950    3.7500    0.0000 C   0  0  0  0  0  0  0  0  0  0  0  0
    6.4950    2.2500    0.0000 C   0  0  0  0  0  0  0  0  0  0  0  0
    7.7940    1.5000    0.0000 C   0  0  0  0  0  0  0  0  0  0  0  0
    7.7940    0.0000    0.0000 C   0  0  0  0  0  0  0  0  0  0  0  0
    9.0930   -0.7500    0.0000 C   0  0  0  0  0  0  0  0  0  0  0  0
   10.3920    0.0000    0.0000 C   0  0  0  0  0  0  0  0  0  0  0  0
   10.3920    1.5000    0.0000 C   0  0  0  0  0  0  0  0  0  0  0  0
    9.0930    2.2500    0.0000 C   0  0  0  0  0  0  0  0  0  0  0  0
    9.0930    3.7500    0.0000 O   0  0  0  0  0  0  0  0  0  0  0  0
   11.6910    2.2500    0.0000 C   0  0  0  0  0  0  0  0  0  0  0  0
   12.9900    1.5000    0.0000 O   0  0  0  0  0  0  0  0  0  0  0  0
   11.6910    3.7500    0.0000 C   0  0  0  0  0  0  0  0  0  0  0  0
    6.4950   -0.7500    0.0000 O   0  0  0  0  0  0  0  0  0  0  0  0
    5.1960    0.0000    0.0000 C   0  0  0  0  0  0  0  0  0  0  0  0
    3.8970   -0.7500    0.0000 C   0  0  0  0  0  0  0  0  0  0  0  0
    2.5980    0.0000    0.0000 C   0  0  0  0  0  0  0  0  0  0  0  0
    1.2990   -0.7500    0.0000 O   0  0  0  0  0  0  0  0  0  0  0  0
    0.0000    0.0000    0.0000 C   0  0  0  0  0  0  0  0  0  0  0  0
    0.0000    1.5000    0.0000 C   0  0  0  0  0  0  0  0  0  0  0  0
   -1.2990    2.2500    0.0000 C   0  0  0  0  0  0  0  0  0  0  0  0
   -2.5980    1.5000    0.0000 C   0  0  0  0  0  0  0  0  0  0  0  0
   -3.8970    2.2500    0.0000 C   0  0  0  0  0  0  0  0  0  0  0  0
   -3.8970    3.7500    0.0000 O   0  0  0  0  0  0  0  0  0  0  0  0
   -5.1960    1.5000    0.0000 C   0  0  0  0  0  0  0  0  0  0  0  0
   -5.1960    0.0000    0.0000 C   0  0  0  0  0  0  0  0  0  0  0  0
   -3.8970   -0.7500    0.0000 O   0  0  0  0  0  0  0  0  0  0  0  0
   -2.5980    0.0000    0.0000 C   0  0  0  0  0  0  0  0  0  0  0  0
   -1.2990   -0.7500    0.0000 C   0  0  0  0  0  0  0  0  0  0  0  0
   -1.2990   -2.2500    0.0000 C   0  0  0  0  0  0  0  0  0  0  0  0
   -2.5980   -3.0000    0.0000 C   0  0  0  0  0  0  0  0  0  0  0  0
   -2.5980   -4.5000    0.0000 C   0  0  0  0  0  0  0  0  0  0  0  0
   -6.4950   -0.7500    0.0000 C   0  0  0  0  0  0  0  0  0  0  0  0
   -7.7940    0.0000    0.0000 C   0  0  0  0  0  0  0  0  0  0  0  0
   -9.0930   -0.7500    0.0000 C   0  0  0  0  0  0  0  0  0  0  0  0
  -10.3920    0.0000    0.0000 O   0  0  0  0  0  0  0  0  0  0  0  0
   -9.0930   -2.2500    0.0000 O   0  0  0  0  0  0  0  0  0  0  0  0
  1  2  1  0  0  0  0
  2  3  1  0  0  0  0
  3  4  1  0  0  0  0
  4  5  1  0  0  0  0
  4  9  2  0  0  0  0
  5  6  2  0  0  0  0
  5 14  1  0  0  0  0
  6  7  1  0  0  0  0
  7  8  2  0  0  0  0
  8  9  1  0  0  0  0
  8 11  1  0  0  0  0
  9 10  1  0  0  0  0
 11 12  2  0  0  0  0
 11 13  1  0  0  0  0
 14 15  1  0  0  0  0
 15 16  1  0  0  0  0
 16 17  1  0  0  0  0
 17 18  1  0  0  0  0
 18 19  1  0  0  0  0
 19 20  1  0  0  0  0
 19 29  2  0  0  0  0
 20 21  2  0  0  0  0
 21 22  1  0  0  0  0
 22 23  1  0  0  0  0
 22 28  2  0  0  0  0
 23 24  2  0  0  0  0
 23 25  1  0  0  0  0
 25 26  2  0  0  0  0
 26 27  1  0  0  0  0
 26 33  1  0  0  0  0
 27 28  1  0  0  0  0
 28 29  1  0  0  0  0
 29 30  1  0  0  0  0
 30 31  1  0  0  0  0
 31 32  1  0  0  0  0
 33 34  1  0  0  0  0
 34 35  1  0  0  0  0
 35 36  2  0  0  0  0
 35 37  1  0  0  0  0
M  END
>  <n>
211

>  <SMILES>
O1c2c(ccc(OCCCOc3ccc(C(=O)C)c(O)c3CCC)c2CCC)C(=O)C=C1CCC(O)=O

>  <IC50>
<10

>  <Class>
1

>  <NAME>
AZ73

>  <INCHI_KEY>
BBCHUVZBELDRPC-UHFFFAOYSA-N

>  <Reference>
Mitigating the inhibition of human Bile Salt Export Pump by drugs_ opportunities provided by physicochemical property modulation,  in-silico modeling and structural modification_SI

$$$$
AZ74
  MOE2013           2D

 21 23  0  0  0  0  0  0  0  0999 V2000
    3.8970   -0.7500    0.0000 C   0  0  0  0  0  0  0  0  0  0  0  0
    2.5980    0.0000    0.0000 C   0  0  0  0  0  0  0  0  0  0  0  0
    1.2990   -0.7500    0.0000 C   0  0  0  0  0  0  0  0  0  0  0  0
    0.0000    0.0000    0.0000 C   0  0  0  0  0  0  0  0  0  0  0  0
    0.0000    1.5000    0.0000 C   0  0  0  0  0  0  0  0  0  0  0  0
   -1.2990    2.2500    0.0000 C   0  0  0  0  0  0  0  0  0  0  0  0
   -2.5980    1.5000    0.0000 C   0  0  0  0  0  0  0  0  0  0  0  0
   -2.5980    0.0000    0.0000 C   0  0  0  0  0  0  0  0  0  0  0  0
   -1.2990   -0.7500    0.0000 C   0  0  0  0  0  0  0  0  0  0  0  0
   -1.2990   -2.2500    0.0000 O   0  0  0  0  0  0  0  0  0  0  0  0
   -2.5980   -3.0000    0.0000 C   0  0  0  0  0  0  0  0  0  0  0  0
   -3.8970   -2.2500    0.0000 C   0  0  0  0  0  0  0  0  0  0  0  0
   -3.8970   -0.7500    0.0000 C   0  0  0  0  0  0  0  0  0  0  0  0
   -5.1960    0.0000    0.0000 O   0  0  0  0  0  0  0  0  0  0  0  0
   -2.5980   -4.5000    0.0000 C   0  0  0  0  0  0  0  0  0  0  0  0
   -3.8970   -5.2500    0.0000 O   0  0  0  0  0  0  0  0  0  0  0  0
   -1.2990   -5.2500    0.0000 O   0  0  0  0  0  0  0  0  0  0  0  0
   -1.2990    3.7500    0.0000 C   0  0  0  0  0  0  0  0  0  0  0  0
    0.0000    4.5000    0.0000 C   0  0  0  0  0  0  0  0  0  0  0  0
    1.2990    3.7500    0.0000 C   0  0  0  0  0  0  0  0  0  0  0  0
    1.2990    2.2500    0.0000 C   0  0  0  0  0  0  0  0  0  0  0  0
  1  2  1  0  0  0  0
  2  3  1  0  0  0  0
  3  4  1  0  0  0  0
  4  5  1  0  0  0  0
  4  9  2  0  0  0  0
  5  6  2  0  0  0  0
  5 21  1  0  0  0  0
  6  7  1  0  0  0  0
  6 18  1  0  0  0  0
  7  8  2  0  0  0  0
  8  9  1  0  0  0  0
  8 13  1  0  0  0  0
  9 10  1  0  0  0  0
 10 11  1  0  0  0  0
 11 12  2  0  0  0  0
 11 15  1  0  0  0  0
 12 13  1  0  0  0  0
 13 14  2  0  0  0  0
 15 16  2  0  0  0  0
 15 17  1  0  0  0  0
 18 19  1  0  0  0  0
 19 20  1  0  0  0  0
 20 21  1  0  0  0  0
M  END
>  <n>
212

>  <SMILES>
O1c2c(cc3c(CCCC3)c2CCC)C(=O)C=C1C(O)=O

>  <IC50>
606.4

>  <Class>
0

>  <NAME>
AZ74

>  <INCHI_KEY>
DLKZWVIRKURGIR-UHFFFAOYSA-N

>  <Reference>
Mitigating the inhibition of human Bile Salt Export Pump by drugs_ opportunities provided by physicochemical property modulation,  in-silico modeling and structural modification_SI

$$$$
AZ76
  MOE2013           2D

 13 13  0  0  0  0  0  0  0  0999 V2000
    2.1140   -4.7470    0.0000 C   0  0  0  0  0  0  0  0  0  0  0  0
    2.2700   -3.2550    0.0000 N   0  0  0  0  0  0  0  0  0  0  0  0
    3.6410   -2.6450    0.0000 C   0  0  0  0  0  0  0  0  0  0  0  0
    1.0570   -2.3740    0.0000 N   0  0  0  0  0  0  0  0  0  0  0  0
    1.2140   -0.8820    0.0000 N   0  0  0  0  0  0  0  0  0  0  0  0
    0.0000    0.0000    0.0000 C   0  0  0  0  0  0  0  0  0  0  0  0
    0.0000    1.5000    0.0000 C   0  0  0  0  0  0  0  0  0  0  0  0
   -1.4270    1.9640    0.0000 N   0  0  0  0  0  0  0  0  0  0  0  0
   -2.3080    0.7500    0.0000 C   0  0  0  0  0  0  0  0  0  0  0  0
   -1.4270   -0.4640    0.0000 N   0  0  0  0  0  0  0  0  0  0  0  0
    1.2140    2.3820    0.0000 C   0  0  0  0  0  0  0  0  0  0  0  0
    1.0570    3.8740    0.0000 O   0  0  0  0  0  0  0  0  0  0  0  0
    2.5840    1.7720    0.0000 N   0  0  0  0  0  0  0  0  0  0  0  0
  1  2  1  0  0  0  0
  2  3  1  0  0  0  0
  2  4  1  0  0  0  0
  4  5  2  3  0  0  0
  5  6  1  0  0  0  0
  6  7  2  0  0  0  0
  6 10  1  0  0  0  0
  7  8  1  0  0  0  0
  7 11  1  0  0  0  0
  8  9  2  0  0  0  0
  9 10  1  0  0  0  0
 11 12  2  0  0  0  0
 11 13  1  0  0  0  0
M  END
>  <n>
213

>  <SMILES>
O=C(N)c1nc[nH]c1N=NN(C)C

>  <IC50>
>1000

>  <Class>
0

>  <NAME>
AZ76

>  <INCHI_KEY>
FDKXTQMXEQVLRF-UHFFFAOYSA-N

>  <Reference>
Mitigating the inhibition of human Bile Salt Export Pump by drugs_ opportunities provided by physicochemical property modulation,  in-silico modeling and structural modification_SI

$$$$
AZ77
  MOE2013           2D

 25 27  0  0  0  0  0  0  0  0999 V2000
    2.5980   -3.0000    0.0000 C   0  0  0  0  0  0  0  0  0  0  0  0
    1.2990   -2.2500    0.0000 C   0  0  0  0  0  0  0  0  0  0  0  0
    1.2990   -0.7500    0.0000 C   0  0  0  0  0  0  0  0  0  0  0  0
    0.0000    0.0000    0.0000 C   0  0  0  0  0  0  0  0  0  0  0  0
    0.0000    1.5000    0.0000 C   0  0  0  0  0  0  0  0  0  0  0  0
   -1.2990    2.2500    0.0000 C   0  0  0  0  0  0  0  0  0  0  0  0
   -2.5980    1.5000    0.0000 C   0  0  0  0  0  0  0  0  0  0  0  0
   -2.5980    0.0000    0.0000 C   0  0  0  0  0  0  0  0  0  0  0  0
   -1.2990   -0.7500    0.0000 C   0  0  0  0  0  0  0  0  0  0  0  0
   -1.2990   -2.2500    0.0000 O   0  0  0  0  0  0  0  0  0  0  0  0
   -2.5980   -3.0000    0.0000 C   0  0  0  0  0  0  0  0  0  0  0  0
   -3.8970   -2.2500    0.0000 C   0  0  0  0  0  0  0  0  0  0  0  0
   -3.8970   -0.7500    0.0000 C   0  0  0  0  0  0  0  0  0  0  0  0
   -5.1960    0.0000    0.0000 O   0  0  0  0  0  0  0  0  0  0  0  0
   -2.5980   -4.5000    0.0000 C   0  0  0  0  0  0  0  0  0  0  0  0
   -3.8970   -5.2500    0.0000 O   0  0  0  0  0  0  0  0  0  0  0  0
   -1.2990   -5.2500    0.0000 O   0  0  0  0  0  0  0  0  0  0  0  0
   -1.2990    3.7500    0.0000 C   0  0  0  0  0  0  0  0  0  0  0  0
    0.0000    4.5000    0.0000 C   0  0  0  0  0  0  0  0  0  0  0  0
    1.2990    3.7500    0.0000 C   0  0  0  0  0  0  0  0  0  0  0  0
    1.2990    2.2500    0.0000 N   0  0  0  0  0  0  0  0  0  0  0  0
    2.5980    4.5000    0.0000 C   0  0  0  0  0  0  0  0  0  0  0  0
    2.5980    6.0000    0.0000 O   0  0  0  0  0  0  0  0  0  0  0  0
    3.8970    3.7500    0.0000 O   0  0  0  0  0  0  0  0  0  0  0  0
   -2.5980    4.5000    0.0000 Cl  0  0  0  0  0  0  0  0  0  0  0  0
  1  2  1  0  0  0  0
  2  3  1  0  0  0  0
  3  4  1  0  0  0  0
  4  5  1  0  0  0  0
  4  9  2  0  0  0  0
  5  6  1  0  0  0  0
  5 21  2  0  0  0  0
  6  7  1  0  0  0  0
  6 18  2  0  0  0  0
  7  8  2  0  0  0  0
  8  9  1  0  0  0  0
  8 13  1  0  0  0  0
  9 10  1  0  0  0  0
 10 11  1  0  0  0  0
 11 12  2  0  0  0  0
 11 15  1  0  0  0  0
 12 13  1  0  0  0  0
 13 14  2  0  0  0  0
 15 16  2  0  0  0  0
 15 17  1  0  0  0  0
 18 19  1  0  0  0  0
 18 25  1  0  0  0  0
 19 20  2  0  0  0  0
 20 21  1  0  0  0  0
 20 22  1  0  0  0  0
 22 23  2  0  0  0  0
 22 24  1  0  0  0  0
M  END
>  <n>
214

>  <SMILES>
Clc1cc(nc2c1cc1c(OC(=CC1=O)C(O)=O)c2CCC)C(O)=O

>  <IC50>
>892.2

>  <Class>
0

>  <NAME>
AZ77

>  <INCHI_KEY>
RQLWVCNPAXCCJZ-UHFFFAOYSA-N

>  <Reference>
Mitigating the inhibition of human Bile Salt Export Pump by drugs_ opportunities provided by physicochemical property modulation,  in-silico modeling and structural modification_SI

$$$$
AZ78
  MOE2013           2D

 12 12  0  0  1  0  0  0  0  0999 V2000
    0.0000    0.0000    0.0000 C   0  0  0  0  0  0  0  0  0  0  0  0
    0.0000    1.5000    0.0000 C   0  0  0  0  0  0  0  0  0  0  0  0
   -1.2990    2.2500    0.0000 C   0  0  0  0  0  0  0  0  0  0  0  0
   -2.5980    1.5000    0.0000 C   0  0  0  0  0  0  0  0  0  0  0  0
   -2.5980    0.0000    0.0000 C   0  0  0  0  0  0  0  0  0  0  0  0
   -1.2990   -0.7500    0.0000 C   0  0  0  0  0  0  0  0  0  0  0  0
   -1.2990   -2.2500    0.0000 C   0  0  3  0  0  0  0  0  0  0  0  0
    0.0000   -3.0000    0.0000 C   0  0  0  0  0  0  0  0  0  0  0  0
    0.0000   -4.5000    0.0000 N   0  0  0  0  0  0  0  0  0  0  0  0
   -2.5980   -3.0000    0.0000 O   0  0  0  0  0  0  0  0  0  0  0  0
   -3.8970    2.2500    0.0000 O   0  0  0  0  0  0  0  0  0  0  0  0
   -1.2990    3.7500    0.0000 O   0  0  0  0  0  0  0  0  0  0  0  0
  1  2  1  0  0  0  0
  1  6  2  0  0  0  0
  2  3  2  0  0  0  0
  3  4  1  0  0  0  0
  3 12  1  0  0  0  0
  4  5  2  0  0  0  0
  4 11  1  0  0  0  0
  5  6  1  0  0  0  0
  6  7  1  0  0  0  0
  7  8  1  0  0  0  0
  7 10  1  0  0  0  0
  8  9  1  0  0  0  0
M  END
>  <n>
215

>  <SMILES>
Oc1cc(ccc1O)[C@@H](O)CN

>  <IC50>
>1000

>  <Class>
0

>  <NAME>
AZ78

>  <INCHI_KEY>
SFLSHLFXELFNJZ-QMMMGPOBSA-N

>  <Reference>
Mitigating the inhibition of human Bile Salt Export Pump by drugs_ opportunities provided by physicochemical property modulation,  in-silico modeling and structural modification_SI

$$$$
AZ79
  MOE2013           2D

 29 31  0  0  0  0  0  0  0  0999 V2000
    2.5980   -3.0000    0.0000 C   0  0  0  0  0  0  0  0  0  0  0  0
    1.2990   -2.2500    0.0000 C   0  0  0  0  0  0  0  0  0  0  0  0
    1.2990   -0.7500    0.0000 C   0  0  0  0  0  0  0  0  0  0  0  0
    0.0000    0.0000    0.0000 C   0  0  0  0  0  0  0  0  0  0  0  0
    0.0000    1.5000    0.0000 C   0  0  0  0  0  0  0  0  0  0  0  0
   -1.2990    2.2500    0.0000 C   0  0  0  0  0  0  0  0  0  0  0  0
   -2.5980    1.5000    0.0000 C   0  0  0  0  0  0  0  0  0  0  0  0
   -2.5980    0.0000    0.0000 C   0  0  0  0  0  0  0  0  0  0  0  0
   -1.2990   -0.7500    0.0000 C   0  0  0  0  0  0  0  0  0  0  0  0
   -1.2990   -2.2500    0.0000 O   0  0  0  0  0  0  0  0  0  0  0  0
   -2.5980   -3.0000    0.0000 C   0  0  0  0  0  0  0  0  0  0  0  0
   -3.8970   -2.2500    0.0000 C   0  0  0  0  0  0  0  0  0  0  0  0
   -3.8970   -0.7500    0.0000 C   0  0  0  0  0  0  0  0  0  0  0  0
   -5.1960    0.0000    0.0000 O   0  0  0  0  0  0  0  0  0  0  0  0
   -2.5980   -4.5000    0.0000 C   0  0  0  0  0  0  0  0  0  0  0  0
   -3.8970   -5.2500    0.0000 O   0  0  0  0  0  0  0  0  0  0  0  0
   -1.2990   -5.2500    0.0000 O   0  0  0  0  0  0  0  0  0  0  0  0
   -1.2990    3.7500    0.0000 C   0  0  0  0  0  0  0  0  0  0  0  0
    0.0000    4.5000    0.0000 C   0  0  0  0  0  0  0  0  0  0  0  0
    1.2990    3.7500    0.0000 C   0  0  0  0  0  0  0  0  0  0  0  0
    1.2990    2.2500    0.0000 N   0  0  0  0  0  0  0  0  0  0  0  0
    2.5980    4.5000    0.0000 C   0  0  0  0  0  0  0  0  0  0  0  0
    2.5980    6.0000    0.0000 O   0  0  0  0  0  0  0  0  0  0  0  0
    3.8970    3.7500    0.0000 O   0  0  0  0  0  0  0  0  0  0  0  0
   -2.5980    4.5000    0.0000 N   0  0  0  0  0  0  0  0  0  0  0  0
   -3.8970    3.7500    0.0000 C   0  0  0  0  0  0  0  0  0  0  0  0
   -2.5980    6.0000    0.0000 C   0  0  0  0  0  0  0  0  0  0  0  0
   -3.8970    6.7500    0.0000 O   0  0  0  0  0  0  0  0  0  0  0  0
   -1.2990    6.7500    0.0000 C   0  0  0  0  0  0  0  0  0  0  0  0
  1  2  1  0  0  0  0
  2  3  1  0  0  0  0
  3  4  1  0  0  0  0
  4  5  1  0  0  0  0
  4  9  2  0  0  0  0
  5  6  1  0  0  0  0
  5 21  2  0  0  0  0
  6  7  1  0  0  0  0
  6 18  2  0  0  0  0
  7  8  2  0  0  0  0
  8  9  1  0  0  0  0
  8 13  1  0  0  0  0
  9 10  1  0  0  0  0
 10 11  1  0  0  0  0
 11 12  2  0  0  0  0
 11 15  1  0  0  0  0
 12 13  1  0  0  0  0
 13 14  2  0  0  0  0
 15 16  2  0  0  0  0
 15 17  1  0  0  0  0
 18 19  1  0  0  0  0
 18 25  1  0  0  0  0
 19 20  2  0  0  0  0
 20 21  1  0  0  0  0
 20 22  1  0  0  0  0
 22 23  2  0  0  0  0
 22 24  1  0  0  0  0
 25 26  1  0  0  0  0
 25 27  1  0  0  0  0
 27 28  2  0  0  0  0
 27 29  1  0  0  0  0
M  END
>  <n>
216

>  <SMILES>
O1c2c(cc3c(nc(cc3N(C(=O)C)C)C(O)=O)c2CCC)C(=O)C=C1C(O)=O

>  <IC50>
>1000

>  <Class>
0

>  <NAME>
AZ79

>  <INCHI_KEY>
KKUURPBOFNUBML-UHFFFAOYSA-N

>  <Reference>
Mitigating the inhibition of human Bile Salt Export Pump by drugs_ opportunities provided by physicochemical property modulation,  in-silico modeling and structural modification_SI

$$$$
AZ8
  MOE2013           2D

 33 37  0  0  0  0  0  0  0  0999 V2000
    4.3840   -8.0020    0.0000 C   0  0  0  0  0  0  0  0  0  0  0  0
    3.1700   -7.1200    0.0000 C   0  0  0  0  0  0  0  0  0  0  0  0
    1.8000   -7.7300    0.0000 C   0  0  0  0  0  0  0  0  0  0  0  0
    1.6430   -9.2220    0.0000 C   0  0  0  0  0  0  0  0  0  0  0  0
    2.8570  -10.1040    0.0000 C   0  0  0  0  0  0  0  0  0  0  0  0
    4.2270   -9.4940    0.0000 C   0  0  0  0  0  0  0  0  0  0  0  0
    5.4400  -10.3760    0.0000 C   0  0  0  0  0  0  0  0  0  0  0  0
    5.2840  -11.8670    0.0000 C   0  0  0  0  0  0  0  0  0  0  0  0
    6.4970  -12.7490    0.0000 C   0  0  0  0  0  0  0  0  0  0  0  0
    7.8680  -12.1390    0.0000 N   0  0  0  0  0  0  0  0  0  0  0  0
    8.0240  -10.6470    0.0000 C   0  0  0  0  0  0  0  0  0  0  0  0
    6.8110   -9.7650    0.0000 C   0  0  0  0  0  0  0  0  0  0  0  0
    0.5860   -6.8490    0.0000 C   0  0  0  0  0  0  0  0  0  0  0  0
   -0.7840   -7.4590    0.0000 O   0  0  0  0  0  0  0  0  0  0  0  0
    0.7430   -5.3570    0.0000 N   0  0  0  0  0  0  0  0  0  0  0  0
    2.1140   -4.7470    0.0000 C   0  0  0  0  0  0  0  0  0  0  0  0
    2.2700   -3.2550    0.0000 C   0  0  0  0  0  0  0  0  0  0  0  0
    1.0570   -2.3740    0.0000 N   0  0  0  0  0  0  0  0  0  0  0  0
   -0.3140   -2.9840    0.0000 C   0  0  0  0  0  0  0  0  0  0  0  0
   -0.4700   -4.4750    0.0000 C   0  0  0  0  0  0  0  0  0  0  0  0
    1.2140   -0.8820    0.0000 S   0  0  0  0  0  0  0  0  0  0  0  0
    2.6550   -1.2950    0.0000 O   0  0  0  0  0  0  0  0  0  0  0  0
    1.8710    0.4660    0.0000 O   0  0  0  0  0  0  0  0  0  0  0  0
    0.0000    0.0000    0.0000 C   0  0  0  0  0  0  0  0  0  0  0  0
    0.0000    1.5000    0.0000 C   0  0  0  0  0  0  0  0  0  0  0  0
   -1.4270    1.9640    0.0000 C   0  0  0  0  0  0  0  0  0  0  0  0
   -2.0370    3.3340    0.0000 C   0  0  0  0  0  0  0  0  0  0  0  0
   -3.5280    3.4910    0.0000 C   0  0  0  0  0  0  0  0  0  0  0  0
   -4.4100    2.2770    0.0000 C   0  0  0  0  0  0  0  0  0  0  0  0
   -3.8000    0.9070    0.0000 C   0  0  0  0  0  0  0  0  0  0  0  0
   -2.3080    0.7500    0.0000 C   0  0  0  0  0  0  0  0  0  0  0  0
   -1.4270   -0.4640    0.0000 N   0  0  0  0  0  0  0  0  0  0  0  0
   -4.1390    4.8610    0.0000 Cl  0  0  0  0  0  0  0  0  0  0  0  0
  1  2  1  0  0  0  0
  1  6  2  0  0  0  0
  2  3  2  0  0  0  0
  3  4  1  0  0  0  0
  3 13  1  0  0  0  0
  4  5  2  0  0  0  0
  5  6  1  0  0  0  0
  6  7  1  0  0  0  0
  7  8  1  0  0  0  0
  7 12  2  0  0  0  0
  8  9  2  0  0  0  0
  9 10  1  0  0  0  0
 10 11  2  0  0  0  0
 11 12  1  0  0  0  0
 13 14  2  0  0  0  0
 13 15  1  0  0  0  0
 15 16  1  0  0  0  0
 15 20  1  0  0  0  0
 16 17  1  0  0  0  0
 17 18  1  0  0  0  0
 18 19  1  0  0  0  0
 18 21  1  0  0  0  0
 19 20  1  0  0  0  0
 21 22  2  0  0  0  0
 21 23  2  0  0  0  0
 21 24  1  0  0  0  0
 24 25  2  0  0  0  0
 24 32  1  0  0  0  0
 25 26  1  0  0  0  0
 26 27  1  0  0  0  0
 26 31  2  0  0  0  0
 27 28  2  0  0  0  0
 28 29  1  0  0  0  0
 28 33  1  0  0  0  0
 29 30  2  0  0  0  0
 30 31  1  0  0  0  0
 31 32  1  0  0  0  0
M  END
>  <n>
217

>  <SMILES>
Clc1cc2cc(S(=O)(=O)N3CCN(CC3)C(=O)c3ccc(cc3)-c3ccncc3)[nH]c2cc1

>  <IC50>
<10

>  <Class>
1

>  <NAME>
AZ8

>  <INCHI_KEY>
QUWXNGCXFLZUFK-UHFFFAOYSA-N

>  <Reference>
Mitigating the inhibition of human Bile Salt Export Pump by drugs_ opportunities provided by physicochemical property modulation,  in-silico modeling and structural modification_SI

$$$$
AZ80
  MOE2013           2D

 25 27  0  0  0  0  0  0  0  0999 V2000
    2.5980   -3.0000    0.0000 C   0  0  0  0  0  0  0  0  0  0  0  0
    1.2990   -2.2500    0.0000 C   0  0  0  0  0  0  0  0  0  0  0  0
    1.2990   -0.7500    0.0000 C   0  0  0  0  0  0  0  0  0  0  0  0
    0.0000    0.0000    0.0000 C   0  0  0  0  0  0  0  0  0  0  0  0
    0.0000    1.5000    0.0000 C   0  0  0  0  0  0  0  0  0  0  0  0
   -1.2990    2.2500    0.0000 C   0  0  0  0  0  0  0  0  0  0  0  0
   -2.5980    1.5000    0.0000 C   0  0  0  0  0  0  0  0  0  0  0  0
   -2.5980    0.0000    0.0000 C   0  0  0  0  0  0  0  0  0  0  0  0
   -1.2990   -0.7500    0.0000 C   0  0  0  0  0  0  0  0  0  0  0  0
   -1.2990   -2.2500    0.0000 O   0  0  0  0  0  0  0  0  0  0  0  0
   -2.5980   -3.0000    0.0000 C   0  0  0  0  0  0  0  0  0  0  0  0
   -3.8970   -2.2500    0.0000 C   0  0  0  0  0  0  0  0  0  0  0  0
   -3.8970   -0.7500    0.0000 C   0  0  0  0  0  0  0  0  0  0  0  0
   -5.1960    0.0000    0.0000 O   0  0  0  0  0  0  0  0  0  0  0  0
   -2.5980   -4.5000    0.0000 C   0  0  0  0  0  0  0  0  0  0  0  0
   -3.8970   -5.2500    0.0000 O   0  0  0  0  0  0  0  0  0  0  0  0
   -1.2990   -5.2500    0.0000 O   0  0  0  0  0  0  0  0  0  0  0  0
   -1.2990    3.7500    0.0000 C   0  0  0  0  0  0  0  0  0  0  0  0
   -2.5980    4.5000    0.0000 O   0  0  0  0  0  0  0  0  0  0  0  0
    0.0000    4.5000    0.0000 C   0  0  0  0  0  0  0  0  0  0  0  0
    1.2990    3.7500    0.0000 C   0  0  0  0  0  0  0  0  0  0  0  0
    1.2990    2.2500    0.0000 N   0  0  0  0  0  0  0  0  0  0  0  0
    2.5980    4.5000    0.0000 C   0  0  0  0  0  0  0  0  0  0  0  0
    2.5980    6.0000    0.0000 O   0  0  0  0  0  0  0  0  0  0  0  0
    3.8970    3.7500    0.0000 O   0  0  0  0  0  0  0  0  0  0  0  0
  1  2  1  0  0  0  0
  2  3  1  0  0  0  0
  3  4  1  0  0  0  0
  4  5  1  0  0  0  0
  4  9  2  0  0  0  0
  5  6  2  0  0  0  0
  5 22  1  0  0  0  0
  6  7  1  0  0  0  0
  6 18  1  0  0  0  0
  7  8  2  0  0  0  0
  8  9  1  0  0  0  0
  8 13  1  0  0  0  0
  9 10  1  0  0  0  0
 10 11  1  0  0  0  0
 11 12  2  0  0  0  0
 11 15  1  0  0  0  0
 12 13  1  0  0  0  0
 13 14  2  0  0  0  0
 15 16  2  0  0  0  0
 15 17  1  0  0  0  0
 18 19  2  0  0  0  0
 18 20  1  0  0  0  0
 20 21  2  0  0  0  0
 21 22  1  0  0  0  0
 21 23  1  0  0  0  0
 23 24  2  0  0  0  0
 23 25  1  0  0  0  0
M  END
>  <n>
218

>  <SMILES>
O1c2c(cc3c(NC(=CC3=O)C(O)=O)c2CCC)C(=O)C=C1C(O)=O

>  <IC50>
>1000

>  <Class>
0

>  <NAME>
AZ80

>  <INCHI_KEY>
BILCUFMIUQDGEV-UHFFFAOYSA-N

>  <Reference>
Mitigating the inhibition of human Bile Salt Export Pump by drugs_ opportunities provided by physicochemical property modulation,  in-silico modeling and structural modification_SI

$$$$
AZ81
  MOE2013           2D

 25 27  0  0  0  0  0  0  0  0999 V2000
    2.5980   -3.0000    0.0000 C   0  0  0  0  0  0  0  0  0  0  0  0
    1.2990   -2.2500    0.0000 C   0  0  0  0  0  0  0  0  0  0  0  0
    1.2990   -0.7500    0.0000 C   0  0  0  0  0  0  0  0  0  0  0  0
    0.0000    0.0000    0.0000 C   0  0  0  0  0  0  0  0  0  0  0  0
    0.0000    1.5000    0.0000 C   0  0  0  0  0  0  0  0  0  0  0  0
   -1.2990    2.2500    0.0000 C   0  0  0  0  0  0  0  0  0  0  0  0
   -2.5980    1.5000    0.0000 C   0  0  0  0  0  0  0  0  0  0  0  0
   -2.5980    0.0000    0.0000 C   0  0  0  0  0  0  0  0  0  0  0  0
   -1.2990   -0.7500    0.0000 C   0  0  0  0  0  0  0  0  0  0  0  0
   -1.2990   -2.2500    0.0000 O   0  0  0  0  0  0  0  0  0  0  0  0
   -2.5980   -3.0000    0.0000 C   0  0  0  0  0  0  0  0  0  0  0  0
   -3.8970   -2.2500    0.0000 C   0  0  0  0  0  0  0  0  0  0  0  0
   -3.8970   -0.7500    0.0000 C   0  0  0  0  0  0  0  0  0  0  0  0
   -5.1960    0.0000    0.0000 O   0  0  0  0  0  0  0  0  0  0  0  0
   -2.5980   -4.5000    0.0000 C   0  0  0  0  0  0  0  0  0  0  0  0
   -3.8970   -5.2500    0.0000 O   0  0  0  0  0  0  0  0  0  0  0  0
   -1.2990   -5.2500    0.0000 O   0  0  0  0  0  0  0  0  0  0  0  0
   -1.2990    3.7500    0.0000 C   0  0  0  0  0  0  0  0  0  0  0  0
   -2.5980    4.5000    0.0000 O   0  0  0  0  0  0  0  0  0  0  0  0
    0.0000    4.5000    0.0000 C   0  0  0  0  0  0  0  0  0  0  0  0
    1.2990    3.7500    0.0000 C   0  0  0  0  0  0  0  0  0  0  0  0
    1.2990    2.2500    0.0000 O   0  0  0  0  0  0  0  0  0  0  0  0
    2.5980    4.5000    0.0000 C   0  0  0  0  0  0  0  0  0  0  0  0
    2.5980    6.0000    0.0000 O   0  0  0  0  0  0  0  0  0  0  0  0
    3.8970    3.7500    0.0000 O   0  0  0  0  0  0  0  0  0  0  0  0
  1  2  1  0  0  0  0
  2  3  1  0  0  0  0
  3  4  1  0  0  0  0
  4  5  1  0  0  0  0
  4  9  2  0  0  0  0
  5  6  2  0  0  0  0
  5 22  1  0  0  0  0
  6  7  1  0  0  0  0
  6 18  1  0  0  0  0
  7  8  2  0  0  0  0
  8  9  1  0  0  0  0
  8 13  1  0  0  0  0
  9 10  1  0  0  0  0
 10 11  1  0  0  0  0
 11 12  2  0  0  0  0
 11 15  1  0  0  0  0
 12 13  1  0  0  0  0
 13 14  2  0  0  0  0
 15 16  2  0  0  0  0
 15 17  1  0  0  0  0
 18 19  2  0  0  0  0
 18 20  1  0  0  0  0
 20 21  2  0  0  0  0
 21 22  1  0  0  0  0
 21 23  1  0  0  0  0
 23 24  2  0  0  0  0
 23 25  1  0  0  0  0
M  END
>  <n>
219

>  <SMILES>
O1c2c(cc3c(OC(=CC3=O)C(O)=O)c2CCC)C(=O)C=C1C(O)=O

>  <IC50>
>1000

>  <Class>
0

>  <NAME>
AZ81

>  <INCHI_KEY>
WEQNUNAIQXHGHB-UHFFFAOYSA-N

>  <Reference>
Mitigating the inhibition of human Bile Salt Export Pump by drugs_ opportunities provided by physicochemical property modulation,  in-silico modeling and structural modification_SI

$$$$
AZ82
  MOE2013           2D

 28 30  0  0  0  0  0  0  0  0999 V2000
    2.5980   -3.0000    0.0000 C   0  0  0  0  0  0  0  0  0  0  0  0
    1.2990   -2.2500    0.0000 C   0  0  0  0  0  0  0  0  0  0  0  0
    1.2990   -0.7500    0.0000 C   0  0  0  0  0  0  0  0  0  0  0  0
    0.0000    0.0000    0.0000 C   0  0  0  0  0  0  0  0  0  0  0  0
    0.0000    1.5000    0.0000 C   0  0  0  0  0  0  0  0  0  0  0  0
   -1.2990    2.2500    0.0000 C   0  0  0  0  0  0  0  0  0  0  0  0
   -2.5980    1.5000    0.0000 C   0  0  0  0  0  0  0  0  0  0  0  0
   -2.5980    0.0000    0.0000 C   0  0  0  0  0  0  0  0  0  0  0  0
   -1.2990   -0.7500    0.0000 C   0  0  0  0  0  0  0  0  0  0  0  0
   -1.2990   -2.2500    0.0000 O   0  0  0  0  0  0  0  0  0  0  0  0
   -2.5980   -3.0000    0.0000 C   0  0  0  0  0  0  0  0  0  0  0  0
   -3.8970   -2.2500    0.0000 C   0  0  0  0  0  0  0  0  0  0  0  0
   -3.8970   -0.7500    0.0000 C   0  0  0  0  0  0  0  0  0  0  0  0
   -5.1960    0.0000    0.0000 O   0  0  0  0  0  0  0  0  0  0  0  0
   -2.5980   -4.5000    0.0000 C   0  0  0  0  0  0  0  0  0  0  0  0
   -3.8970   -5.2500    0.0000 O   0  0  0  0  0  0  0  0  0  0  0  0
   -1.2990   -5.2500    0.0000 O   0  0  0  0  0  0  0  0  0  0  0  0
   -1.2990    3.7500    0.0000 C   0  0  0  0  0  0  0  0  0  0  0  0
    0.0000    4.5000    0.0000 C   0  0  0  0  0  0  0  0  0  0  0  0
    1.2990    3.7500    0.0000 C   0  0  0  0  0  0  0  0  0  0  0  0
    1.2990    2.2500    0.0000 N   0  0  0  0  0  0  0  0  0  0  0  0
    2.5980    4.5000    0.0000 C   0  0  0  0  0  0  0  0  0  0  0  0
    2.5980    6.0000    0.0000 O   0  0  0  0  0  0  0  0  0  0  0  0
    3.8970    3.7500    0.0000 O   0  0  0  0  0  0  0  0  0  0  0  0
   -2.5980    4.5000    0.0000 C   0  0  0  0  0  0  0  0  0  0  0  0
   -2.5980    6.0000    0.0000 F   0  0  0  0  0  0  0  0  0  0  0  0
   -4.0750    4.7600    0.0000 F   0  0  0  0  0  0  0  0  0  0  0  0
   -3.1110    3.0900    0.0000 F   0  0  0  0  0  0  0  0  0  0  0  0
  1  2  1  0  0  0  0
  2  3  1  0  0  0  0
  3  4  1  0  0  0  0
  4  5  1  0  0  0  0
  4  9  2  0  0  0  0
  5  6  1  0  0  0  0
  5 21  2  0  0  0  0
  6  7  1  0  0  0  0
  6 18  2  0  0  0  0
  7  8  2  0  0  0  0
  8  9  1  0  0  0  0
  8 13  1  0  0  0  0
  9 10  1  0  0  0  0
 10 11  1  0  0  0  0
 11 12  2  0  0  0  0
 11 15  1  0  0  0  0
 12 13  1  0  0  0  0
 13 14  2  0  0  0  0
 15 16  2  0  0  0  0
 15 17  1  0  0  0  0
 18 19  1  0  0  0  0
 18 25  1  0  0  0  0
 19 20  2  0  0  0  0
 20 21  1  0  0  0  0
 20 22  1  0  0  0  0
 22 23  2  0  0  0  0
 22 24  1  0  0  0  0
 25 26  1  0  0  0  0
 25 27  1  0  0  0  0
 25 28  1  0  0  0  0
M  END
>  <n>
220

>  <SMILES>
FC(F)(F)c1cc(nc2c1cc1c(OC(=CC1=O)C(O)=O)c2CCC)C(O)=O

>  <IC50>
364.7

>  <Class>
0

>  <NAME>
AZ82

>  <INCHI_KEY>
YJYVCWVXUUFBRW-UHFFFAOYSA-N

>  <Reference>
Mitigating the inhibition of human Bile Salt Export Pump by drugs_ opportunities provided by physicochemical property modulation,  in-silico modeling and structural modification_SI

$$$$
AZ83
  MOE2013           2D

 27 29  0  0  1  0  0  0  0  0999 V2000
   -1.2990    6.7500    0.0000 C   0  0  0  0  0  0  0  0  0  0  0  0
    0.0000    6.0000    0.0000 C   0  0  0  0  0  0  0  0  0  0  0  0
    0.0000    4.5000    0.0000 C   0  0  0  0  0  0  0  0  0  0  0  0
    1.2990    3.7500    0.0000 C   0  0  3  0  0  0  0  0  0  0  0  0
    2.5980    4.5000    0.0000 C   0  0  0  0  0  0  0  0  0  0  0  0
    2.5980    6.0000    0.0000 C   0  0  0  0  0  0  0  0  0  0  0  0
    1.2990    6.7500    0.0000 N   0  0  0  0  0  0  0  0  0  0  0  0
    3.8970    6.7500    0.0000 C   0  0  0  0  0  0  0  0  0  0  0  0
    3.8970    3.7500    0.0000 C   0  0  0  0  0  0  0  0  0  0  0  0
    3.8970    2.2500    0.0000 O   0  0  0  0  0  0  0  0  0  0  0  0
    5.1960    4.5000    0.0000 O   0  0  0  0  0  0  0  0  0  0  0  0
    6.4950    3.7500    0.0000 C   0  0  0  0  0  0  0  0  0  0  0  0
    7.7940    4.5000    0.0000 C   0  0  0  0  0  0  0  0  0  0  0  0
    6.4950    2.2500    0.0000 C   0  0  0  0  0  0  0  0  0  0  0  0
    1.2990    2.2500    0.0000 C   0  0  0  0  0  0  0  0  0  0  0  0
    2.5980    1.5000    0.0000 C   0  0  0  0  0  0  0  0  0  0  0  0
    2.5980    0.0000    0.0000 C   0  0  0  0  0  0  0  0  0  0  0  0
    1.2990   -0.7500    0.0000 C   0  0  0  0  0  0  0  0  0  0  0  0
    0.0000    0.0000    0.0000 C   0  0  0  0  0  0  0  0  0  0  0  0
    0.0000    1.5000    0.0000 C   0  0  0  0  0  0  0  0  0  0  0  0
   -1.4270    1.9640    0.0000 N   0  0  0  0  0  0  0  0  0  0  0  0
   -2.3080    0.7500    0.0000 O   0  0  0  0  0  0  0  0  0  0  0  0
   -1.4270   -0.4640    0.0000 N   0  0  0  0  0  0  0  0  0  0  0  0
   -1.2990    3.7500    0.0000 C   0  0  0  0  0  0  0  0  0  0  0  0
   -1.2990    2.2500    0.0000 O   0  0  0  0  0  0  0  0  0  0  0  0
   -2.5980    4.5000    0.0000 O   0  0  0  0  0  0  0  0  0  0  0  0
   -3.8970    3.7500    0.0000 C   0  0  0  0  0  0  0  0  0  0  0  0
  1  2  1  0  0  0  0
  2  3  2  0  0  0  0
  2  7  1  0  0  0  0
  3  4  1  0  0  0  0
  3 24  1  0  0  0  0
  4  5  1  0  0  0  0
  4 15  1  0  0  0  0
  5  6  2  0  0  0  0
  5  9  1  0  0  0  0
  6  7  1  0  0  0  0
  6  8  1  0  0  0  0
  9 10  2  0  0  0  0
  9 11  1  0  0  0  0
 11 12  1  0  0  0  0
 12 13  1  0  0  0  0
 12 14  1  0  0  0  0
 15 16  2  0  0  0  0
 15 20  1  0  0  0  0
 16 17  1  0  0  0  0
 17 18  2  0  0  0  0
 18 19  1  0  0  0  0
 19 20  1  0  0  0  0
 19 23  2  0  0  0  0
 20 21  2  0  0  0  0
 21 22  1  0  0  0  0
 22 23  1  0  0  0  0
 24 25  2  0  0  0  0
 24 26  1  0  0  0  0
 26 27  1  0  0  0  0
M  END
>  <n>
221

>  <SMILES>
o1nc2c(n1)cccc2[C@H]1C(C(OC(C)C)=O)=C(NC(C)=C1C(OC)=O)C

>  <IC50>
<10

>  <Class>
1

>  <NAME>
AZ83

>  <INCHI_KEY>
HMJIYCCIJYRONP-MRXNPFEDSA-N

>  <Reference>
Mitigating the inhibition of human Bile Salt Export Pump by drugs_ opportunities provided by physicochemical property modulation,  in-silico modeling and structural modification_SI

$$$$
AZ85
  MOE2013           2D

 26 29  0  0  1  0  0  0  0  0999 V2000
    1.2140   -0.8820    0.0000 S   0  0  3  0  0  0  0  0  0  0  0  0
    1.0570   -2.3740    0.0000 O   0  0  0  0  0  0  0  0  0  0  0  0
    2.5840   -0.2720    0.0000 C   0  0  0  0  0  0  0  0  0  0  0  0
    0.0000    0.0000    0.0000 C   0  0  0  0  0  0  0  0  0  0  0  0
    0.0000    1.5000    0.0000 N   0  0  0  0  0  0  0  0  0  0  0  0
   -1.4270   -0.4640    0.0000 N   0  0  0  0  0  0  0  0  0  0  0  0
   -1.4270    1.9640    0.0000 C   0  0  0  0  0  0  0  0  0  0  0  0
   -2.3080    0.7500    0.0000 C   0  0  0  0  0  0  0  0  0  0  0  0
   -2.0370    3.3340    0.0000 C   0  0  0  0  0  0  0  0  0  0  0  0
   -3.8000    0.9070    0.0000 C   0  0  0  0  0  0  0  0  0  0  0  0
   -3.5280    3.4910    0.0000 C   0  0  0  0  0  0  0  0  0  0  0  0
   -4.4100    2.2770    0.0000 C   0  0  0  0  0  0  0  0  0  0  0  0
    3.7970   -1.1530    0.0000 C   0  0  0  0  0  0  0  0  0  0  0  0
    2.7410    1.2200    0.0000 C   0  0  0  0  0  0  0  0  0  0  0  0
    3.6410   -2.6450    0.0000 C   0  0  0  0  0  0  0  0  0  0  0  0
    5.1680   -0.5430    0.0000 C   0  0  0  0  0  0  0  0  0  0  0  0
    4.1110    1.8300    0.0000 C   0  0  0  0  0  0  0  0  0  0  0  0
    1.5270    2.1020    0.0000 C   0  0  0  0  0  0  0  0  0  0  0  0
    5.3240    0.9490    0.0000 C   0  0  0  0  0  0  0  0  0  0  0  0
    1.6840    3.5940    0.0000 C   0  0  0  0  0  0  0  0  0  0  0  0
    0.1570    1.4920    0.0000 N   0  0  0  0  0  0  0  0  0  0  0  0
    0.4700    4.4750    0.0000 C   0  0  0  0  0  0  0  0  0  0  0  0
   -1.0570    2.3740    0.0000 C   0  0  0  0  0  0  0  0  0  0  0  0
   -0.9000    3.8650    0.0000 C   0  0  0  0  0  0  0  0  0  0  0  0
    0.6270    5.9670    0.0000 O   0  0  0  0  0  0  0  0  0  0  0  0
   -0.5860    6.8490    0.0000 C   0  0  0  0  0  0  0  0  0  0  0  0
  1  2  2  0  0  0  0
  1  3  1  0  0  0  0
  1  4  1  0  0  0  0
  3 13  2  0  0  0  0
  3 14  1  0  0  0  0
  4  5  1  0  0  0  0
  4  6  2  0  0  0  0
  5  7  1  0  0  0  0
  6  8  1  0  0  0  0
  7  8  2  0  0  0  0
  7  9  1  0  0  0  0
  8 10  1  0  0  0  0
  9 11  2  0  0  0  0
 10 12  2  0  0  0  0
 11 12  1  0  0  0  0
 13 15  1  0  0  0  0
 13 16  1  0  0  0  0
 14 17  2  0  0  0  0
 14 18  1  0  0  0  0
 16 19  2  0  0  0  0
 17 19  1  0  0  0  0
 18 20  2  0  0  0  0
 18 21  1  0  0  0  0
 20 22  1  0  0  0  0
 21 23  2  0  0  0  0
 22 24  2  0  0  0  0
 22 25  1  0  0  0  0
 23 24  1  0  0  0  0
 25 26  1  0  0  0  0
M  END
>  <n>
223

>  <SMILES>
S(=O)(c1c(cccc1C)-c1nccc(OC)c1)c1[nH]c2c(n1)cccc2

>  <IC50>
<10

>  <Class>
1

>  <NAME>
AZ85

>  <INCHI_KEY>
LUPGJVQXJQCKQB-UHFFFAOYSA-N

>  <Reference>
Mitigating the inhibition of human Bile Salt Export Pump by drugs_ opportunities provided by physicochemical property modulation,  in-silico modeling and structural modification_SI

$$$$
AZ86
  MOE2013           2D

 24 26  0  0  0  0  0  0  0  0999 V2000
    4.2680    3.3220    0.0000 C   0  0  0  0  0  0  0  0  0  0  0  0
    4.1110    1.8300    0.0000 C   0  0  0  0  0  0  0  0  0  0  0  0
    2.7410    1.2200    0.0000 C   0  0  0  0  0  0  0  0  0  0  0  0
    2.5840   -0.2720    0.0000 C   0  0  0  0  0  0  0  0  0  0  0  0
    3.7970   -1.1530    0.0000 C   0  0  0  0  0  0  0  0  0  0  0  0
    5.1680   -0.5430    0.0000 C   0  0  0  0  0  0  0  0  0  0  0  0
    5.3240    0.9490    0.0000 C   0  0  0  0  0  0  0  0  0  0  0  0
    6.6950    1.5590    0.0000 O   0  0  0  0  0  0  0  0  0  0  0  0
    7.9080    0.6770    0.0000 C   0  0  0  0  0  0  0  0  0  0  0  0
    9.2790    1.2870    0.0000 O   0  0  0  0  0  0  0  0  0  0  0  0
    7.7520   -0.8150    0.0000 C   0  0  0  0  0  0  0  0  0  0  0  0
    6.3810   -1.4250    0.0000 C   0  0  0  0  0  0  0  0  0  0  0  0
    1.2140   -0.8820    0.0000 N   0  0  0  0  0  0  0  0  0  0  0  0
    0.0000    0.0000    0.0000 C   0  0  0  0  0  0  0  0  0  0  0  0
    0.0000    1.5000    0.0000 C   0  0  0  0  0  0  0  0  0  0  0  0
   -1.4270    1.9640    0.0000 C   0  0  0  0  0  0  0  0  0  0  0  0
   -2.3080    0.7500    0.0000 N   0  0  0  0  0  0  0  0  0  0  0  0
   -1.4270   -0.4640    0.0000 N   0  0  0  0  0  0  0  0  0  0  0  0
   -3.8080    0.7500    0.0000 C   0  0  0  0  0  0  0  0  0  0  0  0
   -4.5580    2.0490    0.0000 C   0  0  0  0  0  0  0  0  0  0  0  0
   -6.0580    2.0490    0.0000 C   0  0  0  0  0  0  0  0  0  0  0  0
   -6.8080    0.7500    0.0000 C   0  0  0  0  0  0  0  0  0  0  0  0
   -6.0580   -0.5490    0.0000 C   0  0  0  0  0  0  0  0  0  0  0  0
   -4.5580   -0.5490    0.0000 C   0  0  0  0  0  0  0  0  0  0  0  0
  1  2  1  0  0  0  0
  2  3  1  0  0  0  0
  2  7  2  0  0  0  0
  3  4  2  0  0  0  0
  4  5  1  0  0  0  0
  4 13  1  0  0  0  0
  5  6  2  0  0  0  0
  6  7  1  0  0  0  0
  6 12  1  0  0  0  0
  7  8  1  0  0  0  0
  8  9  1  0  0  0  0
  9 10  2  0  0  0  0
  9 11  1  0  0  0  0
 13 14  1  0  0  0  0
 14 15  1  0  0  0  0
 14 18  2  0  0  0  0
 15 16  2  0  0  0  0
 16 17  1  0  0  0  0
 17 18  1  0  0  0  0
 17 19  1  0  0  0  0
 19 20  1  0  0  0  0
 19 24  2  0  0  0  0
 20 21  2  0  0  0  0
 21 22  1  0  0  0  0
 22 23  2  0  0  0  0
 23 24  1  0  0  0  0
M  END
>  <n>
224

>  <SMILES>
O(C(=O)C)c1c(cc(Nc2nn(cc2)-c2ccccc2)cc1C)C

>  <IC50>
<10

>  <Class>
1

>  <NAME>
AZ86

>  <INCHI_KEY>
XCQWBTDXTTYPDL-UHFFFAOYSA-N

>  <Reference>
Mitigating the inhibition of human Bile Salt Export Pump by drugs_ opportunities provided by physicochemical property modulation,  in-silico modeling and structural modification_SI

$$$$
AZ87
  MOE2013           2D

 19 20  0  0  0  0  0  0  0  0999 V2000
    2.5980    0.0000    0.0000 C   0  0  0  0  0  0  0  0  0  0  0  0
    1.2990   -0.7500    0.0000 C   0  0  0  0  0  0  0  0  0  0  0  0
    0.0000    0.0000    0.0000 C   0  0  0  0  0  0  0  0  0  0  0  0
    0.0000    1.5000    0.0000 C   0  0  0  0  0  0  0  0  0  0  0  0
   -1.2990    2.2500    0.0000 C   0  0  0  0  0  0  0  0  0  0  0  0
   -2.5980    1.5000    0.0000 C   0  0  0  0  0  0  0  0  0  0  0  0
   -2.5980    0.0000    0.0000 C   0  0  0  0  0  0  0  0  0  0  0  0
   -1.2990   -0.7500    0.0000 C   0  0  0  0  0  0  0  0  0  0  0  0
   -1.2990   -2.2500    0.0000 O   0  0  0  0  0  0  0  0  0  0  0  0
   -3.8970   -0.7500    0.0000 C   0  0  0  0  0  0  0  0  0  0  0  0
   -3.8970   -2.2500    0.0000 O   0  0  0  0  0  0  0  0  0  0  0  0
   -5.1960    0.0000    0.0000 C   0  0  0  0  0  0  0  0  0  0  0  0
   -5.1960    1.5000    0.0000 C   0  0  0  0  0  0  0  0  0  0  0  0
   -3.8970    2.2500    0.0000 O   0  0  0  0  0  0  0  0  0  0  0  0
   -6.4950    2.2500    0.0000 C   0  0  0  0  0  0  0  0  0  0  0  0
   -7.7940    1.5000    0.0000 O   0  0  0  0  0  0  0  0  0  0  0  0
   -6.4950    3.7500    0.0000 O   0  0  0  0  0  0  0  0  0  0  0  0
   -1.2990    3.7500    0.0000 C   0  0  0  0  0  0  0  0  0  0  0  0
    0.0000    4.5000    0.0000 C   0  0  0  0  0  0  0  0  0  0  0  0
  1  2  1  0  0  0  0
  2  3  1  0  0  0  0
  3  4  1  0  0  0  0
  3  8  2  0  0  0  0
  4  5  2  0  0  0  0
  5  6  1  0  0  0  0
  5 18  1  0  0  0  0
  6  7  2  0  0  0  0
  6 14  1  0  0  0  0
  7  8  1  0  0  0  0
  7 10  1  0  0  0  0
  8  9  1  0  0  0  0
 10 11  2  0  0  0  0
 10 12  1  0  0  0  0
 12 13  2  0  0  0  0
 13 14  1  0  0  0  0
 13 15  1  0  0  0  0
 15 16  2  0  0  0  0
 15 17  1  0  0  0  0
 18 19  1  0  0  0  0
M  END
>  <n>
225

>  <SMILES>
O1c2c(c(O)c(cc2CC)CC)C(=O)C=C1C(O)=O

>  <IC50>
111.7

>  <Class>
0

>  <NAME>
AZ87

>  <INCHI_KEY>
HBBZNIVGQORKNC-UHFFFAOYSA-N

>  <Reference>
Mitigating the inhibition of human Bile Salt Export Pump by drugs_ opportunities provided by physicochemical property modulation,  in-silico modeling and structural modification_SI

$$$$
AZ88
  MOE2013           2D

 22 23  0  0  1  0  0  0  0  0999 V2000
    3.8970   -0.7500    0.0000 C   0  0  0  0  0  0  0  0  0  0  0  0
    2.5980    0.0000    0.0000 C   0  0  0  0  0  0  0  0  0  0  0  0
    1.2990   -0.7500    0.0000 C   0  0  0  0  0  0  0  0  0  0  0  0
    0.0000    0.0000    0.0000 C   0  0  0  0  0  0  0  0  0  0  0  0
    0.0000    1.5000    0.0000 C   0  0  0  0  0  0  0  0  0  0  0  0
   -1.2990    2.2500    0.0000 C   0  0  0  0  0  0  0  0  0  0  0  0
   -2.5980    1.5000    0.0000 C   0  0  0  0  0  0  0  0  0  0  0  0
   -2.5980    0.0000    0.0000 C   0  0  0  0  0  0  0  0  0  0  0  0
   -1.2990   -0.7500    0.0000 C   0  0  0  0  0  0  0  0  0  0  0  0
   -1.2990   -2.2500    0.0000 O   0  0  0  0  0  0  0  0  0  0  0  0
   -2.5980   -3.0000    0.0000 C   0  0  0  0  0  0  0  0  0  0  0  0
   -3.8970   -2.2500    0.0000 C   0  0  0  0  0  0  0  0  0  0  0  0
   -3.8970   -0.7500    0.0000 C   0  0  0  0  0  0  0  0  0  0  0  0
   -5.1960    0.0000    0.0000 O   0  0  0  0  0  0  0  0  0  0  0  0
   -2.5980   -4.5000    0.0000 C   0  0  0  0  0  0  0  0  0  0  0  0
   -3.8970   -5.2500    0.0000 O   0  0  0  0  0  0  0  0  0  0  0  0
   -1.2990   -5.2500    0.0000 O   0  0  0  0  0  0  0  0  0  0  0  0
   -3.8970    2.2500    0.0000 O   0  0  0  0  0  0  0  0  0  0  0  0
   -3.8970    3.7500    0.0000 C   0  0  0  0  0  0  0  0  0  0  0  0
   -5.1960    4.5000    0.0000 C   0  0  3  0  0  0  0  0  0  0  0  0
   -5.1960    6.0000    0.0000 C   0  0  0  0  0  0  0  0  0  0  0  0
   -6.4950    3.7500    0.0000 O   0  0  0  0  0  0  0  0  0  0  0  0
  1  2  1  0  0  0  0
  2  3  1  0  0  0  0
  3  4  1  0  0  0  0
  4  5  1  0  0  0  0
  4  9  2  0  0  0  0
  5  6  2  0  0  0  0
  6  7  1  0  0  0  0
  7  8  2  0  0  0  0
  7 18  1  0  0  0  0
  8  9  1  0  0  0  0
  8 13  1  0  0  0  0
  9 10  1  0  0  0  0
 10 11  1  0  0  0  0
 11 12  2  0  0  0  0
 11 15  1  0  0  0  0
 12 13  1  0  0  0  0
 13 14  2  0  0  0  0
 15 16  2  0  0  0  0
 15 17  1  0  0  0  0
 18 19  1  0  0  0  0
 19 20  1  0  0  0  0
 20 21  1  0  0  0  0
 20 22  1  0  0  0  0
M  END
>  <n>
226

>  <SMILES>
O1c2c(C(=O)C=C1C(O)=O)c(OCC(O)C)ccc2CCC

>  <IC50>
270.6

>  <Class>
0

>  <NAME>
AZ88

>  <INCHI_KEY>
YQCGBHBRCNCNLL-UHFFFAOYSA-N

>  <Reference>
Mitigating the inhibition of human Bile Salt Export Pump by drugs_ opportunities provided by physicochemical property modulation,  in-silico modeling and structural modification_SI

$$$$
AZ89
  MOE2013           2D

 16 16  0  0  1  0  0  0  0  0999 V2000
    3.5620    1.1490    0.0000 C   0  0  0  0  0  0  0  0  0  0  0  0
    2.5980    0.0000    0.0000 C   0  0  2  0  0  0  0  0  0  0  0  0
    1.2990   -0.7500    0.0000 C   0  0  0  0  0  0  0  0  0  0  0  0
    0.0000    0.0000    0.0000 C   0  0  0  0  0  0  0  0  0  0  0  0
    0.0000    1.5000    0.0000 C   0  0  0  0  0  0  0  0  0  0  0  0
   -1.2990    2.2500    0.0000 C   0  0  0  0  0  0  0  0  0  0  0  0
   -2.5980    1.5000    0.0000 C   0  0  0  0  0  0  0  0  0  0  0  0
   -2.5980    0.0000    0.0000 C   0  0  0  0  0  0  0  0  0  0  0  0
   -1.2990   -0.7500    0.0000 C   0  0  0  0  0  0  0  0  0  0  0  0
   -3.8970   -0.7500    0.0000 O   0  0  0  0  0  0  0  0  0  0  0  0
   -3.8970    2.2500    0.0000 O   0  0  0  0  0  0  0  0  0  0  0  0
    3.8970   -0.7500    0.0000 C   0  0  0  0  0  0  0  0  0  0  0  0
    5.1960    0.0000    0.0000 O   0  0  0  0  0  0  0  0  0  0  0  0
    3.8970   -2.2500    0.0000 O   0  0  0  0  0  0  0  0  0  0  0  0
    1.6340    1.1490    0.0000 N   0  0  0  0  0  0  0  0  0  0  0  0
    2.1470    2.5590    0.0000 N   0  0  0  0  0  0  0  0  0  0  0  0
  2  1  1  1  0  0  0
  2  3  1  0  0  0  0
  2 12  1  0  0  0  0
  2 15  1  6  0  0  0
  3  4  1  0  0  0  0
  4  5  2  0  0  0  0
  4  9  1  0  0  0  0
  5  6  1  0  0  0  0
  6  7  2  0  0  0  0
  7  8  1  0  0  0  0
  7 11  1  0  0  0  0
  8  9  2  0  0  0  0
  8 10  1  0  0  0  0
 12 13  2  0  0  0  0
 12 14  1  0  0  0  0
 15 16  1  0  0  0  0
M  END
>  <n>
227

>  <SMILES>
Oc1cc(ccc1O)C[C@](NN)(C(O)=O)C

>  <IC50>
>1000

>  <Class>
0

>  <NAME>
AZ89

>  <INCHI_KEY>
TZFNLOMSOLWIDK-JTQLQIEISA-N

>  <Reference>
Mitigating the inhibition of human Bile Salt Export Pump by drugs_ opportunities provided by physicochemical property modulation,  in-silico modeling and structural modification_SI

$$$$
AZ90
  MOE2013           2D

 14 14  0  0  0  0  0  0  0  0999 V2000
    0.0000    0.0000    0.0000 C   0  0  0  0  0  0  0  0  0  0  0  0
    0.0000    1.5000    0.0000 C   0  0  0  0  0  0  0  0  0  0  0  0
   -1.2990    2.2500    0.0000 C   0  0  0  0  0  0  0  0  0  0  0  0
   -2.5980    1.5000    0.0000 C   0  0  0  0  0  0  0  0  0  0  0  0
   -2.5980    0.0000    0.0000 C   0  0  0  0  0  0  0  0  0  0  0  0
   -1.2990   -0.7500    0.0000 C   0  0  0  0  0  0  0  0  0  0  0  0
   -3.8970   -0.7500    0.0000 Cl  0  0  0  0  0  0  0  0  0  0  0  0
   -3.8970    2.2500    0.0000 C   0  0  0  0  0  0  0  0  0  0  0  0
   -5.1960    1.5000    0.0000 N   0  0  0  0  0  0  0  0  0  0  0  0
   -6.4950    2.2500    0.0000 N   0  0  0  0  0  0  0  0  0  0  0  0
   -7.7940    1.5000    0.0000 C   0  0  0  0  0  0  0  0  0  0  0  0
   -9.0930    2.2500    0.0000 N   0  0  0  0  0  0  0  0  0  0  0  0
   -7.7940    0.0000    0.0000 N   0  0  0  0  0  0  0  0  0  0  0  0
   -1.2990    3.7500    0.0000 Cl  0  0  0  0  0  0  0  0  0  0  0  0
  1  2  2  0  0  0  0
  1  6  1  0  0  0  0
  2  3  1  0  0  0  0
  3  4  2  0  0  0  0
  3 14  1  0  0  0  0
  4  5  1  0  0  0  0
  4  8  1  0  0  0  0
  5  6  2  0  0  0  0
  5  7  1  0  0  0  0
  8  9  2  0  0  0  0
  9 10  1  0  0  0  0
 10 11  1  0  0  0  0
 11 12  2  0  0  0  0
 11 13  1  0  0  0  0
M  END
>  <n>
229

>  <SMILES>
Clc1cccc(Cl)c1C=NNC(N)=N

>  <IC50>
343.7

>  <Class>
0

>  <NAME>
AZ90

>  <INCHI_KEY>
WDZVGELJXXEGPV-UHFFFAOYSA-N

>  <Reference>
Mitigating the inhibition of human Bile Salt Export Pump by drugs_ opportunities provided by physicochemical property modulation,  in-silico modeling and structural modification_SI

$$$$
AZ92
  MOE2013           2D

 28 32  0  0  0  0  0  0  0  0999 V2000
   -8.1420    3.3060    0.0000 C   0  0  0  0  0  0  0  0  0  0  0  0
   -8.5300    1.8580    0.0000 C   0  0  0  0  0  0  0  0  0  0  0  0
   -7.4700    0.7970    0.0000 C   0  0  0  0  0  0  0  0  0  0  0  0
   -6.0210    1.1850    0.0000 C   0  0  0  0  0  0  0  0  0  0  0  0
   -5.6330    2.6340    0.0000 C   0  0  0  0  0  0  0  0  0  0  0  0
   -6.6930    3.6950    0.0000 C   0  0  0  0  0  0  0  0  0  0  0  0
   -6.3050    5.1440    0.0000 C   0  0  0  0  0  0  0  0  0  0  0  0
   -7.3660    6.2040    0.0000 N   0  0  0  0  0  0  0  0  0  0  0  0
   -6.9780    7.6530    0.0000 C   0  0  0  0  0  0  0  0  0  0  0  0
   -8.0380    8.7140    0.0000 C   0  0  0  0  0  0  0  0  0  0  0  0
   -9.4870    8.3260    0.0000 N   0  0  0  0  0  0  0  0  0  0  0  0
   -9.8750    6.8770    0.0000 C   0  0  0  0  0  0  0  0  0  0  0  0
   -8.8150    5.8160    0.0000 C   0  0  0  0  0  0  0  0  0  0  0  0
   -4.9600    0.1240    0.0000 C   0  0  0  0  0  0  0  0  0  0  0  0
   -5.3490   -1.3240    0.0000 O   0  0  0  0  0  0  0  0  0  0  0  0
   -3.5110    0.5130    0.0000 N   0  0  0  0  0  0  0  0  0  0  0  0
   -2.4510   -0.5480    0.0000 C   0  0  0  0  0  0  0  0  0  0  0  0
   -1.0020   -0.1600    0.0000 C   0  0  0  0  0  0  0  0  0  0  0  0
   -0.5890   -0.8740    0.0000 C   0  0  0  0  0  0  0  0  0  0  0  0
    0.2090   -0.6650    0.0000 C   0  0  0  0  0  0  0  0  0  0  0  0
    1.0020   -0.8740    0.0000 C   0  0  0  0  0  0  0  0  0  0  0  0
    0.5900   -0.1600    0.0000 C   0  0  0  0  0  0  0  0  0  0  0  0
   -0.2090   -0.3690    0.0000 C   0  0  0  0  0  0  0  0  0  0  0  0
    0.5900    0.6650    0.0000 C   0  0  0  0  0  0  0  0  0  0  0  0
   -0.2040    0.8740    0.0000 C   0  0  0  0  0  0  0  0  0  0  0  0
    0.2090    0.1600    0.0000 C   0  0  0  0  0  0  0  0  0  0  0  0
   -1.0020    0.6650    0.0000 C   0  0  0  0  0  0  0  0  0  0  0  0
   -7.8580   -0.6520    0.0000 Cl  0  0  0  0  0  0  0  0  0  0  0  0
  1  2  1  0  0  0  0
  1  6  2  0  0  0  0
  2  3  2  0  0  0  0
  3  4  1  0  0  0  0
  3 28  1  0  0  0  0
  4  5  2  0  0  0  0
  4 14  1  0  0  0  0
  5  6  1  0  0  0  0
  6  7  1  0  0  0  0
  7  8  1  0  0  0  0
  8  9  1  0  0  0  0
  8 13  1  0  0  0  0
  9 10  1  0  0  0  0
 10 11  1  0  0  0  0
 11 12  1  0  0  0  0
 12 13  1  0  0  0  0
 14 15  2  0  0  0  0
 14 16  1  0  0  0  0
 16 17  1  0  0  0  0
 17 18  1  0  0  0  0
 18 19  1  0  0  0  0
 18 23  1  0  0  0  0
 18 27  1  0  0  0  0
 19 20  1  0  0  0  0
 20 21  1  0  0  0  0
 20 26  1  0  0  0  0
 21 22  1  0  0  0  0
 22 23  1  0  0  0  0
 22 24  1  0  0  0  0
 24 25  1  0  0  0  0
 25 26  1  0  0  0  0
 25 27  1  0  0  0  0
M  END
>  <n>
231

>  <SMILES>
Clc1ccc(cc1C(=O)NCC12CC3CC(C1)CC(C2)C3)CN1CCNCC1

>  <IC50>
124

>  <Class>
0

>  <NAME>
AZ92

>  <INCHI_KEY>
VGXCGVFXXLXIIY-UHFFFAOYSA-N

>  <Reference>
Mitigating the inhibition of human Bile Salt Export Pump by drugs_ opportunities provided by physicochemical property modulation,  in-silico modeling and structural modification_SI

$$$$
AZ93
  MOE2013           2D

 20 20  0  0  1  0  0  0  0  0999 V2000
    0.0000    0.0000    0.0000 C   0  0  0  0  0  0  0  0  0  0  0  0
    0.0000    1.5000    0.0000 C   0  0  0  0  0  0  0  0  0  0  0  0
   -1.2990    2.2500    0.0000 C   0  0  0  0  0  0  0  0  0  0  0  0
   -2.5980    1.5000    0.0000 C   0  0  0  0  0  0  0  0  0  0  0  0
   -2.5980    0.0000    0.0000 C   0  0  0  0  0  0  0  0  0  0  0  0
   -1.2990   -0.7500    0.0000 C   0  0  0  0  0  0  0  0  0  0  0  0
   -1.2990   -2.2500    0.0000 C   0  0  3  0  0  0  0  0  0  0  0  0
    0.0000   -3.0000    0.0000 C   0  0  3  0  0  0  0  0  0  0  0  0
    1.2990   -2.2500    0.0000 C   0  0  0  0  0  0  0  0  0  0  0  0
    2.5980   -3.0000    0.0000 O   0  0  0  0  0  0  0  0  0  0  0  0
    0.0000   -4.5000    0.0000 N   0  0  0  0  0  0  0  0  0  0  0  0
    1.2990   -5.2500    0.0000 C   0  0  0  0  0  0  0  0  0  0  0  0
    2.5980   -4.5000    0.0000 O   0  0  0  0  0  0  0  0  0  0  0  0
    1.2990   -6.7500    0.0000 C   0  0  0  0  0  0  0  0  0  0  0  0
    2.5980   -7.5000    0.0000 Cl  0  0  0  0  0  0  0  0  0  0  0  0
    0.0000   -7.5000    0.0000 Cl  0  0  0  0  0  0  0  0  0  0  0  0
   -2.5980   -3.0000    0.0000 O   0  0  0  0  0  0  0  0  0  0  0  0
   -1.2990    3.7500    0.0000 N   0  3  0  0  0  0  0  0  0  0  0  0
   -2.5980    4.5000    0.0000 O   0  0  0  0  0  0  0  0  0  0  0  0
    0.0000    4.5000    0.0000 O   0  5  0  0  0  0  0  0  0  0  0  0
  1  2  1  0  0  0  0
  1  6  2  0  0  0  0
  2  3  2  0  0  0  0
  3  4  1  0  0  0  0
  3 18  1  0  0  0  0
  4  5  2  0  0  0  0
  5  6  1  0  0  0  0
  6  7  1  0  0  0  0
  7  8  1  0  0  0  0
  7 17  1  0  0  0  0
  8  9  1  0  0  0  0
  8 11  1  0  0  0  0
  9 10  1  0  0  0  0
 11 12  1  0  0  0  0
 12 13  2  0  0  0  0
 12 14  1  0  0  0  0
 14 15  1  0  0  0  0
 14 16  1  0  0  0  0
 18 19  2  0  0  0  0
 18 20  1  0  0  0  0
M  CHG  1  18   1
M  CHG  1  20  -1
M  END
>  <n>
232

>  <SMILES>
ClC(Cl)C(=O)N[C@@H]([C@H](O)c1ccc([N+](=O)[O-])cc1)CO

>  <IC50>
>957.9

>  <Class>
0

>  <NAME>
AZ93

>  <INCHI_KEY>
WIIZWVCIJKGZOK-RKDXNWHRSA-N

>  <Reference>
Mitigating the inhibition of human Bile Salt Export Pump by drugs_ opportunities provided by physicochemical property modulation,  in-silico modeling and structural modification_SI

$$$$
AZ95
  MOE2013           2D

 12 11  0  0  1  0  0  0  0  0999 V2000
    0.0000    0.0000    0.0000 C   0  0  0  0  0  0  0  0  0  0  0  0
    0.0000    1.5000    0.0000 C   0  0  0  0  0  0  0  0  0  0  0  0
    1.2990    2.2500    0.0000 C   0  0  0  0  0  0  0  0  0  0  0  0
   -1.2990    2.2500    0.0000 C   0  0  0  0  0  0  0  0  0  0  0  0
   -2.5980    1.5000    0.0000 O   0  0  0  0  0  0  0  0  0  0  0  0
   -1.2990    3.7500    0.0000 N   0  0  0  0  0  0  0  0  0  0  0  0
   -2.5980    4.5000    0.0000 C   0  0  3  0  0  0  0  0  0  0  0  0
   -3.8970    3.7500    0.0000 C   0  0  0  0  0  0  0  0  0  0  0  0
   -5.1960    4.5000    0.0000 S   0  0  0  0  0  0  0  0  0  0  0  0
   -2.5980    6.0000    0.0000 C   0  0  0  0  0  0  0  0  0  0  0  0
   -3.8970    6.7500    0.0000 O   0  0  0  0  0  0  0  0  0  0  0  0
   -1.2990    6.7500    0.0000 O   0  0  0  0  0  0  0  0  0  0  0  0
  1  2  1  0  0  0  0
  2  3  1  0  0  0  0
  2  4  1  0  0  0  0
  4  5  2  0  0  0  0
  4  6  1  0  0  0  0
  6  7  1  0  0  0  0
  7  8  1  0  0  0  0
  7 10  1  0  0  0  0
  8  9  1  0  0  0  0
 10 11  2  0  0  0  0
 10 12  1  0  0  0  0
M  END
>  <n>
234

>  <SMILES>
SC[C@H](NC(=O)C(C)C)C(O)=O

>  <IC50>
>1000

>  <Class>
0

>  <NAME>
AZ95

>  <INCHI_KEY>
BWBQXMAXLAHHTK-YFKPBYRVSA-N

>  <Reference>
Mitigating the inhibition of human Bile Salt Export Pump by drugs_ opportunities provided by physicochemical property modulation,  in-silico modeling and structural modification_SI

$$$$
AZ96
  MOE2013           2D

 47 48  0  0  1  0  0  0  0  0999 V2000
    0.0000    0.0000    0.0000 C   0  0  0  0  0  0  0  0  0  0  0  0
    0.0000    1.5000    0.0000 C   0  0  0  0  0  0  0  0  0  0  0  0
   -1.2990    2.2500    0.0000 N   0  0  0  0  0  0  0  0  0  0  0  0
   -2.5980    1.5000    0.0000 C   0  0  0  0  0  0  0  0  0  0  0  0
   -3.8970    2.2500    0.0000 N   0  0  0  0  0  0  0  0  0  0  0  0
   -2.5980    0.0000    0.0000 N   0  0  0  0  0  0  0  0  0  0  0  0
   -1.2990   -0.7500    0.0000 C   0  0  3  0  0  0  0  0  0  0  0  0
   -1.2990   -2.2500    0.0000 C   0  0  3  0  0  0  0  0  0  0  0  0
   -2.7700   -2.5430    0.0000 C   0  0  0  0  0  0  0  0  0  0  0  0
   -3.3440   -1.1570    0.0000 O   0  0  0  0  0  0  0  0  0  0  0  0
   -4.0170   -3.3760    0.0000 N   0  0  0  0  0  0  0  0  0  0  0  0
   -4.8510   -4.6230    0.0000 C   0  0  0  0  0  0  0  0  0  0  0  0
   -5.1430   -6.0940    0.0000 C   0  0  3  0  0  0  0  0  0  0  0  0
   -4.8510   -7.5660    0.0000 C   0  0  0  0  0  0  0  0  0  0  0  0
   -6.2370   -8.1400    0.0000 O   0  0  0  0  0  0  0  0  0  0  0  0
   -4.0170   -8.8130    0.0000 N   0  0  0  0  0  0  0  0  0  0  0  0
   -2.7700   -9.6460    0.0000 C   0  0  3  0  0  0  0  0  0  0  0  0
   -1.2990   -9.9390    0.0000 C   0  0  0  0  0  0  0  0  0  0  0  0
   -1.2990  -11.4390    0.0000 O   0  0  0  0  0  0  0  0  0  0  0  0
    0.1720   -9.6460    0.0000 N   0  0  0  0  0  0  0  0  0  0  0  0
    1.4190   -8.8130    0.0000 C   0  0  3  0  0  0  0  0  0  0  0  0
    2.2530   -7.5660    0.0000 C   0  0  0  0  0  0  0  0  0  0  0  0
    3.6380   -8.1400    0.0000 O   0  0  0  0  0  0  0  0  0  0  0  0
    2.5450   -6.0940    0.0000 N   0  0  0  0  0  0  0  0  0  0  0  0
    2.2530   -4.6230    0.0000 C   0  0  0  0  0  0  0  0  0  0  0  0
    3.6380   -4.0490    0.0000 C   0  0  0  0  0  0  0  0  0  0  0  0
    4.8280   -4.9620    0.0000 N   0  0  0  0  0  0  0  0  0  0  0  0
    6.2140   -4.3880    0.0000 C   0  0  0  0  0  0  0  0  0  0  0  0
    7.4040   -5.3010    0.0000 O   0  0  0  0  0  0  0  0  0  0  0  0
    6.4100   -2.9010    0.0000 N   0  0  0  0  0  0  0  0  0  0  0  0
    1.4190   -3.3760    0.0000 C   0  0  0  0  0  0  0  0  0  0  0  0
    2.4800   -2.3150    0.0000 O   0  0  0  0  0  0  0  0  0  0  0  0
    0.1720   -2.5430    0.0000 N   0  0  0  0  0  0  0  0  0  0  0  0
    2.4800   -9.8730    0.0000 C   0  0  0  0  0  0  0  0  0  0  0  0
    2.0920  -11.3220    0.0000 N   0  0  0  0  0  0  0  0  0  0  0  0
    3.1520  -12.3830    0.0000 C   0  0  0  0  0  0  0  0  0  0  0  0
    4.6010  -11.9950    0.0000 O   0  0  0  0  0  0  0  0  0  0  0  0
    2.7640  -13.8320    0.0000 C   0  0  0  0  0  0  0  0  0  0  0  0
    3.8250  -14.8920    0.0000 C   0  0  3  0  0  0  0  0  0  0  0  0
    3.4370  -16.3410    0.0000 C   0  0  0  0  0  0  0  0  0  0  0  0
    4.4970  -17.4020    0.0000 C   0  0  0  0  0  0  0  0  0  0  0  0
    4.1090  -18.8510    0.0000 C   0  0  0  0  0  0  0  0  0  0  0  0
    5.1700  -19.9120    0.0000 N   0  0  0  0  0  0  0  0  0  0  0  0
    5.2740  -14.5040    0.0000 N   0  0  0  0  0  0  0  0  0  0  0  0
   -3.3440  -11.0320    0.0000 C   0  0  0  0  0  0  0  0  0  0  0  0
   -4.8310  -11.2280    0.0000 O   0  0  0  0  0  0  0  0  0  0  0  0
   -6.6430   -6.0940    0.0000 N   0  0  0  0  0  0  0  0  0  0  0  0
  1  2  1  0  0  0  0
  1  7  1  0  0  0  0
  2  3  1  0  0  0  0
  3  4  1  0  0  0  0
  4  5  2  0  0  0  0
  4  6  1  0  0  0  0
  6  7  1  0  0  0  0
  7  8  1  0  0  0  0
  8  9  1  0  0  0  0
  8 33  1  0  0  0  0
  9 10  2  0  0  0  0
  9 11  1  0  0  0  0
 11 12  1  0  0  0  0
 12 13  1  0  0  0  0
 13 14  1  0  0  0  0
 13 47  1  0  0  0  0
 14 15  2  0  0  0  0
 14 16  1  0  0  0  0
 16 17  1  0  0  0  0
 17 18  1  0  0  0  0
 17 45  1  0  0  0  0
 18 19  2  0  0  0  0
 18 20  1  0  0  0  0
 20 21  1  0  0  0  0
 21 22  1  0  0  0  0
 21 34  1  0  0  0  0
 22 23  2  0  0  0  0
 22 24  1  0  0  0  0
 24 25  1  0  0  0  0
 25 26  2  0  0  0  0
 25 31  1  0  0  0  0
 26 27  1  0  0  0  0
 27 28  1  0  0  0  0
 28 29  2  0  0  0  0
 28 30  1  0  0  0  0
 31 32  2  0  0  0  0
 31 33  1  0  0  0  0
 34 35  1  0  0  0  0
 35 36  1  0  0  0  0
 36 37  2  0  0  0  0
 36 38  1  0  0  0  0
 38 39  1  0  0  0  0
 39 40  1  0  0  0  0
 39 44  1  0  0  0  0
 40 41  1  0  0  0  0
 41 42  1  0  0  0  0
 42 43  1  0  0  0  0
 45 46  1  0  0  0  0
M  END
>  <n>
235

>  <SMILES>
O=C1NCC(N)C(=O)NC(CO)C(=O)NC(CNC(=O)CC(N)CCCN)C(=O)N\C(=C/NC(=O)N)\C(=O)NC1C1NC(NCC1)=N

>  <IC50>
>1000

>  <Class>
0

>  <NAME>
AZ96

>  <INCHI_KEY>
JNIIDKODPGHQSS-DHDCSXOGSA-N

>  <Reference>
Mitigating the inhibition of human Bile Salt Export Pump by drugs_ opportunities provided by physicochemical property modulation,  in-silico modeling and structural modification_SI

$$$$
AZ97
  MOE2013           2D

 30 32  0  0  1  0  0  0  0  0999 V2000
   -3.8970   -5.2500    0.0000 S   0  0  3  0  0  0  0  0  0  0  0  0
   -3.8970   -6.7500    0.0000 O   0  0  0  0  0  0  0  0  0  0  0  0
   -2.5980   -4.5000    0.0000 C   0  0  0  0  0  0  0  0  0  0  0  0
   -5.1960   -4.5000    0.0000 C   0  0  0  0  0  0  0  0  0  0  0  0
   -2.5980   -3.0000    0.0000 C   0  0  0  0  0  0  0  0  0  0  0  0
   -1.2990   -2.2500    0.0000 O   0  0  0  0  0  0  0  0  0  0  0  0
   -1.2990   -0.7500    0.0000 C   0  0  0  0  0  0  0  0  0  0  0  0
    0.0000    0.0000    0.0000 C   0  0  0  0  0  0  0  0  0  0  0  0
   -2.5980    0.0000    0.0000 C   0  0  0  0  0  0  0  0  0  0  0  0
    1.2990   -0.7500    0.0000 N   0  0  0  0  0  0  0  0  0  0  0  0
    0.0000    1.5000    0.0000 C   0  0  0  0  0  0  0  0  0  0  0  0
   -2.5980    1.5000    0.0000 C   0  0  0  0  0  0  0  0  0  0  0  0
    2.5980    0.0000    0.0000 C   0  0  0  0  0  0  0  0  0  0  0  0
    1.2990    2.2500    0.0000 C   0  0  0  0  0  0  0  0  0  0  0  0
   -1.2990    2.2500    0.0000 C   0  0  0  0  0  0  0  0  0  0  0  0
    2.5980    1.5000    0.0000 C   0  0  0  0  0  0  0  0  0  0  0  0
    1.2990    3.7500    0.0000 N   0  0  0  0  0  0  0  0  0  0  0  0
    3.8970    2.2500    0.0000 C   0  0  0  0  0  0  0  0  0  0  0  0
    0.0000    4.5000    0.0000 C   0  0  0  0  0  0  0  0  0  0  0  0
    5.1960    1.5000    0.0000 C   0  0  0  0  0  0  0  0  0  0  0  0
    3.8970    3.7500    0.0000 O   0  0  0  0  0  0  0  0  0  0  0  0
    0.0000    6.0000    0.0000 C   0  0  0  0  0  0  0  0  0  0  0  0
   -1.2990    3.7500    0.0000 C   0  0  0  0  0  0  0  0  0  0  0  0
    6.4950    2.2500    0.0000 C   0  0  0  0  0  0  0  0  0  0  0  0
   -1.2990    6.7500    0.0000 C   0  0  0  0  0  0  0  0  0  0  0  0
   -2.5980    4.5000    0.0000 C   0  0  0  0  0  0  0  0  0  0  0  0
   -1.2990    2.2500    0.0000 C   0  0  0  0  0  0  0  0  0  0  0  0
    7.7940    1.5000    0.0000 C   0  0  0  0  0  0  0  0  0  0  0  0
   -2.5980    6.0000    0.0000 C   0  0  0  0  0  0  0  0  0  0  0  0
   -3.8970    6.7500    0.0000 F   0  0  0  0  0  0  0  0  0  0  0  0
  1  2  2  0  0  0  0
  1  3  1  0  0  0  0
  1  4  1  0  0  0  0
  3  5  1  0  0  0  0
  5  6  1  0  0  0  0
  6  7  1  0  0  0  0
  7  8  1  0  0  0  0
  7  9  2  0  0  0  0
  8 10  2  0  0  0  0
  8 11  1  0  0  0  0
  9 12  1  0  0  0  0
 10 13  1  0  0  0  0
 11 14  2  0  0  0  0
 11 15  1  0  0  0  0
 12 15  2  0  0  0  0
 13 16  2  0  0  0  0
 14 16  1  0  0  0  0
 14 17  1  0  0  0  0
 16 18  1  0  0  0  0
 17 19  1  0  0  0  0
 18 20  1  0  0  0  0
 18 21  2  0  0  0  0
 19 22  2  0  0  0  0
 19 23  1  0  0  0  0
 20 24  1  0  0  0  0
 22 25  1  0  0  0  0
 23 26  2  0  0  0  0
 23 27  1  0  0  0  0
 24 28  1  0  0  0  0
 25 29  2  0  0  0  0
 26 29  1  0  0  0  0
 29 30  1  0  0  0  0
M  END
>  <n>
236

>  <SMILES>
S(=O)(CCOc1c2ncc(C(=O)CCC)c(Nc3ccc(F)cc3C)c2ccc1)C

>  <IC50>
<10

>  <Class>
1

>  <NAME>
AZ97

>  <INCHI_KEY>
WPQIQQOTBKRKGA-UHFFFAOYSA-N

>  <Reference>
Mitigating the inhibition of human Bile Salt Export Pump by drugs_ opportunities provided by physicochemical property modulation,  in-silico modeling and structural modification_SI

$$$$
AZ98
  MOE2013           2D

 25 27  0  0  1  0  0  0  0  0999 V2000
    3.8970   -0.7500    0.0000 C   0  0  0  0  0  0  0  0  0  0  0  0
    2.5980    0.0000    0.0000 C   0  0  0  0  0  0  0  0  0  0  0  0
    1.2990   -0.7500    0.0000 C   0  0  0  0  0  0  0  0  0  0  0  0
    0.0000    0.0000    0.0000 N   0  0  0  0  0  0  0  0  0  0  0  0
    0.0000    1.5000    0.0000 C   0  0  3  0  0  0  0  0  0  0  0  0
   -1.5000    1.5000    0.0000 C   0  0  3  0  0  0  0  0  0  0  0  0
   -1.5000    0.0000    0.0000 C   0  0  0  0  0  0  0  0  0  0  0  0
   -2.5610   -1.0610    0.0000 O   0  0  0  0  0  0  0  0  0  0  0  0
   -2.5610    2.5610    0.0000 N   0  0  0  0  0  0  0  0  0  0  0  0
   -4.0100    2.1720    0.0000 C   0  0  0  0  0  0  0  0  0  0  0  0
   -4.3980    0.7240    0.0000 O   0  0  0  0  0  0  0  0  0  0  0  0
   -5.0700    3.2330    0.0000 C   0  0  3  0  0  0  0  0  0  0  0  0
   -6.5190    2.8450    0.0000 C   0  0  0  0  0  0  0  0  0  0  0  0
   -7.5800    3.9060    0.0000 C   0  0  0  0  0  0  0  0  0  0  0  0
   -9.0290    3.5170    0.0000 C   0  0  0  0  0  0  0  0  0  0  0  0
   -9.4170    2.0680    0.0000 C   0  0  0  0  0  0  0  0  0  0  0  0
   -8.3560    1.0080    0.0000 C   0  0  0  0  0  0  0  0  0  0  0  0
   -6.9070    1.3960    0.0000 C   0  0  0  0  0  0  0  0  0  0  0  0
  -10.8660    1.6800    0.0000 O   0  0  0  0  0  0  0  0  0  0  0  0
   -4.6820    4.6820    0.0000 N   0  0  0  0  0  0  0  0  0  0  0  0
    1.2990    2.2500    0.0000 S   0  0  0  0  0  0  0  0  0  0  0  0
    2.5980    1.5000    0.0000 C   0  0  0  0  0  0  0  0  0  0  0  0
    1.2990   -2.2500    0.0000 C   0  0  0  0  0  0  0  0  0  0  0  0
    2.5980   -3.0000    0.0000 O   0  0  0  0  0  0  0  0  0  0  0  0
    0.0000   -3.0000    0.0000 O   0  0  0  0  0  0  0  0  0  0  0  0
  1  2  1  0  0  0  0
  2  3  2  0  0  0  0
  2 22  1  0  0  0  0
  3  4  1  0  0  0  0
  3 23  1  0  0  0  0
  4  5  1  0  0  0  0
  4  7  1  0  0  0  0
  5  6  1  0  0  0  0
  5 21  1  0  0  0  0
  6  7  1  0  0  0  0
  6  9  1  0  0  0  0
  7  8  2  0  0  0  0
  9 10  1  0  0  0  0
 10 11  2  0  0  0  0
 10 12  1  0  0  0  0
 12 13  1  0  0  0  0
 12 20  1  0  0  0  0
 13 14  1  0  0  0  0
 13 18  2  0  0  0  0
 14 15  2  0  0  0  0
 15 16  1  0  0  0  0
 16 17  2  0  0  0  0
 16 19  1  0  0  0  0
 17 18  1  0  0  0  0
 21 22  1  0  0  0  0
 23 24  2  0  0  0  0
 23 25  1  0  0  0  0
M  END
>  <n>
237

>  <SMILES>
S1[C@H]2N(C(C(O)=O)=C(C1)C)C(=O)[C@H]2NC(=O)[C@@H](N)c1ccc(O)cc1

>  <IC50>
>1000

>  <Class>
0

>  <NAME>
AZ98

>  <INCHI_KEY>
BOEGTKLJZSQCCD-FIXISWKDSA-N

>  <Reference>
Mitigating the inhibition of human Bile Salt Export Pump by drugs_ opportunities provided by physicochemical property modulation,  in-silico modeling and structural modification_SI

$$$$
AZ99
  MOE2013           2D

 22 25  0  0  1  0  0  0  0  0999 V2000
    1.2550   -3.6730    0.0000 C   0  0  0  0  0  0  0  0  0  0  0  0
    0.5050   -2.3740    0.0000 C   0  0  0  0  0  0  0  0  0  0  0  0
    1.1150   -1.0040    0.0000 C   0  0  0  0  0  0  0  0  0  0  0  0
    0.0000    0.0000    0.0000 N   0  0  0  0  0  0  0  0  0  0  0  0
    0.0000    1.5000    0.0000 C   0  0  0  0  0  0  0  0  0  0  0  0
   -1.2990    2.2500    0.0000 C   0  0  0  0  0  0  0  0  0  0  0  0
   -2.5980    1.5000    0.0000 C   0  0  0  0  0  0  0  0  0  0  0  0
   -2.5980    0.0000    0.0000 C   0  0  0  0  0  0  0  0  0  0  0  0
   -1.2990   -0.7500    0.0000 C   0  0  0  0  0  0  0  0  0  0  0  0
   -0.9870   -2.2170    0.0000 N   0  0  0  0  0  0  0  0  0  0  0  0
   -3.8970   -0.7500    0.0000 O   0  0  0  0  0  0  0  0  0  0  0  0
   -5.1960    0.0000    0.0000 C   0  0  3  0  0  0  0  0  0  0  0  0
   -5.1960    1.5000    0.0000 C   0  0  0  0  0  0  0  0  0  0  0  0
   -3.8970    2.2500    0.0000 C   0  0  0  0  0  0  0  0  0  0  0  0
   -6.4950   -0.7500    0.0000 C   0  0  0  0  0  0  0  0  0  0  0  0
   -7.7940    0.0000    0.0000 C   0  0  0  0  0  0  0  0  0  0  0  0
   -9.0930   -0.7500    0.0000 C   0  0  0  0  0  0  0  0  0  0  0  0
   -9.0930   -2.2500    0.0000 C   0  0  0  0  0  0  0  0  0  0  0  0
   -7.7940   -3.0000    0.0000 C   0  0  0  0  0  0  0  0  0  0  0  0
   -6.4950   -2.2500    0.0000 C   0  0  0  0  0  0  0  0  0  0  0  0
    2.5820   -0.6920    0.0000 C   0  0  0  0  0  0  0  0  0  0  0  0
    3.5860   -1.8060    0.0000 O   0  0  0  0  0  0  0  0  0  0  0  0
  1  2  1  0  0  0  0
  2  3  2  0  0  0  0
  2 10  1  0  0  0  0
  3  4  1  0  0  0  0
  3 21  1  0  0  0  0
  4  5  1  0  0  0  0
  4  9  1  0  0  0  0
  5  6  2  0  0  0  0
  6  7  1  0  0  0  0
  7  8  2  0  0  0  0
  7 14  1  0  0  0  0
  8  9  1  0  0  0  0
  8 11  1  0  0  0  0
  9 10  2  0  0  0  0
 11 12  1  0  0  0  0
 12 13  1  0  0  0  0
 12 15  1  0  0  0  0
 13 14  1  0  0  0  0
 15 16  1  0  0  0  0
 15 20  2  0  0  0  0
 16 17  2  0  0  0  0
 17 18  1  0  0  0  0
 18 19  2  0  0  0  0
 19 20  1  0  0  0  0
 21 22  1  0  0  0  0
M  END
>  <n>
238

>  <SMILES>
O1C2=C(CCC1c1ccccc1)C=Cn1c2nc(C)c1CO

>  <IC50>
<10

>  <Class>
1

>  <NAME>
AZ99

>  <INCHI_KEY>
KEVZDVIKLAQVDM-UHFFFAOYSA-N

>  <Reference>
Mitigating the inhibition of human Bile Salt Export Pump by drugs_ opportunities provided by physicochemical property modulation,  in-silico modeling and structural modification_SI

$$$$
AZATHIOPRINE
  MOE2013           2D

 19 21  0  0  0  0  0  0  0  0999 V2000
    1.6400   -5.4960    0.0000 C   0  0  0  0  0  0  0  0  0  0  0  0
    2.7550   -4.4920    0.0000 N   0  0  0  0  0  0  0  0  0  0  0  0
    4.2220   -4.8040    0.0000 C   0  0  0  0  0  0  0  0  0  0  0  0
    4.9720   -3.5050    0.0000 N   0  0  0  0  0  0  0  0  0  0  0  0
    3.9680   -2.3900    0.0000 C   0  0  0  0  0  0  0  0  0  0  0  0
    2.5980   -3.0000    0.0000 C   0  0  0  0  0  0  0  0  0  0  0  0
    1.2990   -2.2500    0.0000 S   0  0  0  0  0  0  0  0  0  0  0  0
    1.2990   -0.7500    0.0000 C   0  0  0  0  0  0  0  0  0  0  0  0
    0.0000    0.0000    0.0000 C   0  0  0  0  0  0  0  0  0  0  0  0
    0.0000    1.5000    0.0000 C   0  0  0  0  0  0  0  0  0  0  0  0
   -1.4270    1.9640    0.0000 N   0  0  0  0  0  0  0  0  0  0  0  0
   -2.3080    0.7500    0.0000 C   0  0  0  0  0  0  0  0  0  0  0  0
   -1.4270   -0.4640    0.0000 N   0  0  0  0  0  0  0  0  0  0  0  0
    1.2990    2.2500    0.0000 N   0  0  0  0  0  0  0  0  0  0  0  0
    2.5980    1.5000    0.0000 C   0  0  0  0  0  0  0  0  0  0  0  0
    2.5980    0.0000    0.0000 N   0  0  0  0  0  0  0  0  0  0  0  0
    4.2800   -0.9230    0.0000 N   0  3  0  0  0  0  0  0  0  0  0  0
    5.7070   -0.4590    0.0000 O   0  0  0  0  0  0  0  0  0  0  0  0
    3.1660    0.0810    0.0000 O   0  5  0  0  0  0  0  0  0  0  0  0
  1  2  1  0  0  0  0
  2  3  1  0  0  0  0
  2  6  1  0  0  0  0
  3  4  2  0  0  0  0
  4  5  1  0  0  0  0
  5  6  2  0  0  0  0
  5 17  1  0  0  0  0
  6  7  1  0  0  0  0
  7  8  1  0  0  0  0
  8  9  1  0  0  0  0
  8 16  2  0  0  0  0
  9 10  2  0  0  0  0
  9 13  1  0  0  0  0
 10 11  1  0  0  0  0
 10 14  1  0  0  0  0
 11 12  2  0  0  0  0
 12 13  1  0  0  0  0
 14 15  2  0  0  0  0
 15 16  1  0  0  0  0
 17 18  2  0  0  0  0
 17 19  1  0  0  0  0
M  CHG  1  17   1
M  CHG  1  19  -1
M  END
>  <n>
239

>  <SMILES>
S(c1n(cnc1[N+](=O)[O-])C)c1ncnc2nc[nH]c12

>  <IC50>
>1000

>  <Class>
0

>  <NAME>
AZATHIOPRINE

>  <INCHI_KEY>
LMEKQMALGUDUQG-UHFFFAOYSA-N

>  <Reference>
Mitigating, Dawson

$$$$
AZD0865
  MOE2013           2D

 27 29  0  0  0  0  0  0  0  0999 V2000
    5.1960    6.0000    0.0000 C   0  0  0  0  0  0  0  0  0  0  0  0
    3.8970    6.7500    0.0000 C   0  0  0  0  0  0  0  0  0  0  0  0
    3.8970    8.2500    0.0000 C   0  0  0  0  0  0  0  0  0  0  0  0
    2.5980    9.0000    0.0000 C   0  0  0  0  0  0  0  0  0  0  0  0
    1.2990    8.2500    0.0000 C   0  0  0  0  0  0  0  0  0  0  0  0
    1.2990    6.7500    0.0000 C   0  0  0  0  0  0  0  0  0  0  0  0
    2.5980    6.0000    0.0000 C   0  0  0  0  0  0  0  0  0  0  0  0
    2.5980    4.5000    0.0000 C   0  0  0  0  0  0  0  0  0  0  0  0
    1.2990    3.7500    0.0000 N   0  0  0  0  0  0  0  0  0  0  0  0
    1.2990    2.2500    0.0000 C   0  0  0  0  0  0  0  0  0  0  0  0
    2.5980    1.5000    0.0000 C   0  0  0  0  0  0  0  0  0  0  0  0
    2.5980    0.0000    0.0000 C   0  0  0  0  0  0  0  0  0  0  0  0
    1.2990   -0.7500    0.0000 C   0  0  0  0  0  0  0  0  0  0  0  0
    0.0000    0.0000    0.0000 N   0  0  0  0  0  0  0  0  0  0  0  0
    0.0000    1.5000    0.0000 C   0  0  0  0  0  0  0  0  0  0  0  0
   -1.4270    1.9640    0.0000 N   0  0  0  0  0  0  0  0  0  0  0  0
   -2.3080    0.7500    0.0000 C   0  0  0  0  0  0  0  0  0  0  0  0
   -1.4270   -0.4640    0.0000 C   0  0  0  0  0  0  0  0  0  0  0  0
   -1.8900   -1.8900    0.0000 C   0  0  0  0  0  0  0  0  0  0  0  0
   -3.8080    0.7500    0.0000 C   0  0  0  0  0  0  0  0  0  0  0  0
    3.8970   -0.7500    0.0000 C   0  0  0  0  0  0  0  0  0  0  0  0
    5.1960    0.0000    0.0000 O   0  0  0  0  0  0  0  0  0  0  0  0
    3.8970   -2.2500    0.0000 N   0  0  0  0  0  0  0  0  0  0  0  0
    5.1960   -3.0000    0.0000 C   0  0  0  0  0  0  0  0  0  0  0  0
    5.1960   -4.5000    0.0000 C   0  0  0  0  0  0  0  0  0  0  0  0
    6.4950   -5.2500    0.0000 O   0  0  0  0  0  0  0  0  0  0  0  0
    0.0000    6.0000    0.0000 C   0  0  0  0  0  0  0  0  0  0  0  0
  1  2  1  0  0  0  0
  2  3  1  0  0  0  0
  2  7  2  0  0  0  0
  3  4  2  0  0  0  0
  4  5  1  0  0  0  0
  5  6  2  0  0  0  0
  6  7  1  0  0  0  0
  6 27  1  0  0  0  0
  7  8  1  0  0  0  0
  8  9  1  0  0  0  0
  9 10  1  0  0  0  0
 10 11  2  0  0  0  0
 10 15  1  0  0  0  0
 11 12  1  0  0  0  0
 12 13  2  0  0  0  0
 12 21  1  0  0  0  0
 13 14  1  0  0  0  0
 14 15  1  0  0  0  0
 14 18  1  0  0  0  0
 15 16  2  0  0  0  0
 16 17  1  0  0  0  0
 17 18  2  0  0  0  0
 17 20  1  0  0  0  0
 18 19  1  0  0  0  0
 21 22  2  0  0  0  0
 21 23  1  0  0  0  0
 23 24  1  0  0  0  0
 24 25  1  0  0  0  0
 25 26  1  0  0  0  0
M  END
>  <n>
241

>  <SMILES>
OCCNC(=O)C=1C=C(NCc2c(cccc2C)C)c2n(C=1)c(C)c(n2)C

>  <IC50>
<10

>  <Class>
1

>  <NAME>
AZD0865

>  <INCHI_KEY>
GHVIMBCFLRTFHI-UHFFFAOYSA-N

>  <Reference>
Mitigating the inhibition of human Bile Salt Export Pump by drugs_ opportunities provided by physicochemical property modulation,  in-silico modeling and structural modification_SI

$$$$
AZD7009
  MOE2013           2D

 28 30  0  0  1  0  0  0  0  0999 V2000
    1.2990   -7.7500    0.0000 C   0  0  0  0  0  0  0  0  0  0  0  0
    0.0000   -7.0000    0.0000 C   0  0  0  0  0  0  0  0  0  0  0  0
   -1.4770   -6.7400    0.0000 C   0  0  0  0  0  0  0  0  0  0  0  0
   -0.5130   -8.4100    0.0000 C   0  0  0  0  0  0  0  0  0  0  0  0
    0.0000   -5.5000    0.0000 C   0  0  0  0  0  0  0  0  0  0  0  0
    1.2990   -4.7500    0.0000 O   0  0  0  0  0  0  0  0  0  0  0  0
   -1.2990   -4.7500    0.0000 C   0  0  0  0  0  0  0  0  0  0  0  0
   -1.2990   -3.2500    0.0000 N   0  0  0  0  0  0  0  0  0  0  0  0
    0.1250   -2.2210    0.0000 C   0  0  0  0  0  0  0  0  0  0  0  0
    0.0000    0.0000    0.0000 C   0  0  3  0  0  0  0  0  0  0  0  0
    0.0000    1.5000    0.0000 C   0  0  0  0  0  0  0  0  0  0  0  0
   -1.2990    2.2500    0.0000 N   0  0  0  0  0  0  0  0  0  0  0  0
   -2.5980    1.5000    0.0000 C   0  0  0  0  0  0  0  0  0  0  0  0
   -2.5980    0.0000    0.0000 C   0  0  3  0  0  0  0  0  0  0  0  0
   -2.7230   -2.2210    0.0000 C   0  0  0  0  0  0  0  0  0  0  0  0
   -1.2990   -0.7500    0.0000 O   0  0  0  0  0  0  0  0  0  0  0  0
   -1.2990    3.7500    0.0000 C   0  0  0  0  0  0  0  0  0  0  0  0
   -2.5980    4.5000    0.0000 C   0  0  0  0  0  0  0  0  0  0  0  0
   -2.5980    6.0000    0.0000 C   0  0  0  0  0  0  0  0  0  0  0  0
   -3.8970    6.7500    0.0000 N   0  0  0  0  0  0  0  0  0  0  0  0
   -3.8970    8.2500    0.0000 C   0  0  0  0  0  0  0  0  0  0  0  0
   -2.5980    9.0000    0.0000 C   0  0  0  0  0  0  0  0  0  0  0  0
   -2.5980   10.5000    0.0000 C   0  0  0  0  0  0  0  0  0  0  0  0
   -3.8970   11.2500    0.0000 C   0  0  0  0  0  0  0  0  0  0  0  0
   -5.1960   10.5000    0.0000 C   0  0  0  0  0  0  0  0  0  0  0  0
   -5.1960    9.0000    0.0000 C   0  0  0  0  0  0  0  0  0  0  0  0
   -3.8970   12.7500    0.0000 C   0  0  0  0  0  0  0  0  0  0  0  0
   -3.8970   14.2500    0.0000 N   0  0  0  0  0  0  0  0  0  0  0  0
  1  2  1  0  0  0  0
  2  3  1  0  0  0  0
  2  4  1  0  0  0  0
  2  5  1  0  0  0  0
  5  6  2  0  0  0  0
  5  7  1  0  0  0  0
  7  8  1  0  0  0  0
  8  9  1  0  0  0  0
  8 15  1  0  0  0  0
  9 10  1  0  0  0  0
 10 11  1  0  0  0  0
 10 16  1  0  0  0  0
 11 12  1  0  0  0  0
 12 13  1  0  0  0  0
 12 17  1  0  0  0  0
 13 14  1  0  0  0  0
 14 15  1  0  0  0  0
 14 16  1  0  0  0  0
 17 18  1  0  0  0  0
 18 19  1  0  0  0  0
 19 20  1  0  0  0  0
 20 21  1  0  0  0  0
 21 22  1  0  0  0  0
 21 26  2  0  0  0  0
 22 23  2  0  0  0  0
 23 24  1  0  0  0  0
 24 25  2  0  0  0  0
 24 27  1  0  0  0  0
 25 26  1  0  0  0  0
 27 28  3  0  0  0  0
M  END
>  <n>
242

>  <SMILES>
O1C2CN(CC1CN(C2)CCCNc1ccc(cc1)C#N)CC(=O)C(C)(C)C

>  <IC50>
513.6

>  <Class>
0

>  <NAME>
AZD7009

>  <INCHI_KEY>
KZOCHEDMAHPYCK-UHFFFAOYSA-N

>  <Reference>
Mitigating the inhibition of human Bile Salt Export Pump by drugs_ opportunities provided by physicochemical property modulation,  in-silico modeling and structural modification_SI

$$$$
BENDROFLUMETHIAZIDE
  MOE2013           2D

 27 29  0  0  1  0  0  0  0  0999 V2000
    2.5980   -7.5000    0.0000 C   0  0  0  0  0  0  0  0  0  0  0  0
    3.8970   -6.7500    0.0000 C   0  0  0  0  0  0  0  0  0  0  0  0
    3.8970   -5.2500    0.0000 C   0  0  0  0  0  0  0  0  0  0  0  0
    2.5980   -4.5000    0.0000 C   0  0  0  0  0  0  0  0  0  0  0  0
    1.2990   -5.2500    0.0000 C   0  0  0  0  0  0  0  0  0  0  0  0
    1.2990   -6.7500    0.0000 C   0  0  0  0  0  0  0  0  0  0  0  0
    2.5980   -3.0000    0.0000 C   0  0  0  0  0  0  0  0  0  0  0  0
    1.2990   -2.2500    0.0000 C   0  0  3  0  0  0  0  0  0  0  0  0
    1.2990   -0.7500    0.0000 N   0  0  0  0  0  0  0  0  0  0  0  0
    0.0000    0.0000    0.0000 C   0  0  0  0  0  0  0  0  0  0  0  0
    0.0000    1.5000    0.0000 C   0  0  0  0  0  0  0  0  0  0  0  0
   -1.2990    2.2500    0.0000 C   0  0  0  0  0  0  0  0  0  0  0  0
   -2.5980    1.5000    0.0000 C   0  0  0  0  0  0  0  0  0  0  0  0
   -2.5980    0.0000    0.0000 C   0  0  0  0  0  0  0  0  0  0  0  0
   -1.2990   -0.7500    0.0000 C   0  0  0  0  0  0  0  0  0  0  0  0
   -1.2990   -2.2500    0.0000 S   0  0  0  0  0  0  0  0  0  0  0  0
   -2.7760   -1.9900    0.0000 O   0  0  0  0  0  0  0  0  0  0  0  0
   -1.8120   -3.6600    0.0000 O   0  0  0  0  0  0  0  0  0  0  0  0
    0.0000   -3.0000    0.0000 N   0  0  0  0  0  0  0  0  0  0  0  0
   -3.8970    2.2500    0.0000 S   0  0  0  0  0  0  0  0  0  0  0  0
   -3.8970    3.7500    0.0000 O   0  0  0  0  0  0  0  0  0  0  0  0
   -5.3740    2.5100    0.0000 O   0  0  0  0  0  0  0  0  0  0  0  0
   -4.4100    0.8400    0.0000 N   0  0  0  0  0  0  0  0  0  0  0  0
   -1.2990    3.7500    0.0000 C   0  0  0  0  0  0  0  0  0  0  0  0
   -2.5980    4.5000    0.0000 F   0  0  0  0  0  0  0  0  0  0  0  0
    0.1780    3.4900    0.0000 F   0  0  0  0  0  0  0  0  0  0  0  0
   -0.7860    5.1600    0.0000 F   0  0  0  0  0  0  0  0  0  0  0  0
  1  2  1  0  0  0  0
  1  6  2  0  0  0  0
  2  3  2  0  0  0  0
  3  4  1  0  0  0  0
  4  5  2  0  0  0  0
  4  7  1  0  0  0  0
  5  6  1  0  0  0  0
  7  8  1  0  0  0  0
  8  9  1  0  0  0  0
  8 19  1  0  0  0  0
  9 10  1  0  0  0  0
 10 11  1  0  0  0  0
 10 15  2  0  0  0  0
 11 12  2  0  0  0  0
 12 13  1  0  0  0  0
 12 24  1  0  0  0  0
 13 14  2  0  0  0  0
 13 20  1  0  0  0  0
 14 15  1  0  0  0  0
 15 16  1  0  0  0  0
 16 17  2  0  0  0  0
 16 18  2  0  0  0  0
 16 19  1  0  0  0  0
 20 21  2  0  0  0  0
 20 22  2  0  0  0  0
 20 23  1  0  0  0  0
 24 25  1  0  0  0  0
 24 26  1  0  0  0  0
 24 27  1  0  0  0  0
M  END
>  <n>
244

>  <SMILES>
S(=O)(=O)(N)c1cc2S(=O)(=O)NC(Nc2cc1C(F)(F)F)Cc1ccccc1

>  <IC50>
69.55

>  <Class>
0

>  <NAME>
BENDROFLUMETHIAZIDE

>  <INCHI_KEY>
HDWIHXWEUNVBIY-UHFFFAOYSA-N

>  <Reference>
Mitigating the inhibition of human Bile Salt Export Pump by drugs_ opportunities provided by physicochemical property modulation,  in-silico modeling and structural modification_SI

$$$$
BENOXAPROFEN
  MOE2013           2D

 21 23  0  0  1  0  0  0  0  0999 V2000
    3.8970    3.7500    0.0000 C   0  0  0  0  0  0  0  0  0  0  0  0
    3.8970    2.2500    0.0000 C   0  0  3  0  0  0  0  0  0  0  0  0
    2.5980    1.5000    0.0000 C   0  0  0  0  0  0  0  0  0  0  0  0
    2.5980    0.0000    0.0000 C   0  0  0  0  0  0  0  0  0  0  0  0
    1.2990   -0.7500    0.0000 C   0  0  0  0  0  0  0  0  0  0  0  0
    0.0000    0.0000    0.0000 C   0  0  0  0  0  0  0  0  0  0  0  0
    0.0000    1.5000    0.0000 C   0  0  0  0  0  0  0  0  0  0  0  0
    1.2990    2.2500    0.0000 C   0  0  0  0  0  0  0  0  0  0  0  0
   -1.4270    1.9640    0.0000 N   0  0  0  0  0  0  0  0  0  0  0  0
   -2.3080    0.7500    0.0000 C   0  0  0  0  0  0  0  0  0  0  0  0
   -1.4270   -0.4640    0.0000 O   0  0  0  0  0  0  0  0  0  0  0  0
   -3.8080    0.7500    0.0000 C   0  0  0  0  0  0  0  0  0  0  0  0
   -4.5580    2.0490    0.0000 C   0  0  0  0  0  0  0  0  0  0  0  0
   -6.0580    2.0490    0.0000 C   0  0  0  0  0  0  0  0  0  0  0  0
   -6.8080    0.7500    0.0000 C   0  0  0  0  0  0  0  0  0  0  0  0
   -6.0580   -0.5490    0.0000 C   0  0  0  0  0  0  0  0  0  0  0  0
   -4.5580   -0.5490    0.0000 C   0  0  0  0  0  0  0  0  0  0  0  0
   -8.3080    0.7500    0.0000 Cl  0  0  0  0  0  0  0  0  0  0  0  0
    5.1960    1.5000    0.0000 C   0  0  0  0  0  0  0  0  0  0  0  0
    6.4950    2.2500    0.0000 O   0  0  0  0  0  0  0  0  0  0  0  0
    5.1960    0.0000    0.0000 O   0  0  0  0  0  0  0  0  0  0  0  0
  1  2  1  0  0  0  0
  2  3  1  0  0  0  0
  2 19  1  0  0  0  0
  3  4  1  0  0  0  0
  3  8  2  0  0  0  0
  4  5  2  0  0  0  0
  5  6  1  0  0  0  0
  6  7  2  0  0  0  0
  6 11  1  0  0  0  0
  7  8  1  0  0  0  0
  7  9  1  0  0  0  0
  9 10  2  0  0  0  0
 10 11  1  0  0  0  0
 10 12  1  0  0  0  0
 12 13  1  0  0  0  0
 12 17  2  0  0  0  0
 13 14  2  0  0  0  0
 14 15  1  0  0  0  0
 15 16  2  0  0  0  0
 15 18  1  0  0  0  0
 16 17  1  0  0  0  0
 19 20  2  0  0  0  0
 19 21  1  0  0  0  0
M  END
>  <n>
245

>  <SMILES>
Clc1ccc(cc1)-c1oc2c(n1)cc(cc2)C(C(O)=O)C

>  <IC50>
103.7

>  <Class>
0

>  <NAME>
BENOXAPROFEN

>  <INCHI_KEY>
MITFXPHMIHQXPI-UHFFFAOYSA-N

>  <Reference>
Mitigating, Dawson

$$$$
BENOXINATE
  MOE2013           2D

 22 22  0  0  0  0  0  0  0  0999 V2000
    6.4950   -0.7500    0.0000 C   0  0  0  0  0  0  0  0  0  0  0  0
    5.1960    0.0000    0.0000 C   0  0  0  0  0  0  0  0  0  0  0  0
    3.8970   -0.7500    0.0000 C   0  0  0  0  0  0  0  0  0  0  0  0
    2.5980    0.0000    0.0000 C   0  0  0  0  0  0  0  0  0  0  0  0
    1.2990   -0.7500    0.0000 O   0  0  0  0  0  0  0  0  0  0  0  0
    0.0000    0.0000    0.0000 C   0  0  0  0  0  0  0  0  0  0  0  0
    0.0000    1.5000    0.0000 C   0  0  0  0  0  0  0  0  0  0  0  0
   -1.2990    2.2500    0.0000 C   0  0  0  0  0  0  0  0  0  0  0  0
   -2.5980    1.5000    0.0000 C   0  0  0  0  0  0  0  0  0  0  0  0
   -2.5980    0.0000    0.0000 C   0  0  0  0  0  0  0  0  0  0  0  0
   -1.2990   -0.7500    0.0000 C   0  0  0  0  0  0  0  0  0  0  0  0
   -1.2990   -2.2500    0.0000 N   0  0  0  0  0  0  0  0  0  0  0  0
   -1.2990    3.7500    0.0000 C   0  0  0  0  0  0  0  0  0  0  0  0
    0.0000    4.5000    0.0000 O   0  0  0  0  0  0  0  0  0  0  0  0
   -2.5980    4.5000    0.0000 O   0  0  0  0  0  0  0  0  0  0  0  0
   -2.5980    6.0000    0.0000 C   0  0  0  0  0  0  0  0  0  0  0  0
   -3.8970    6.7500    0.0000 C   0  0  0  0  0  0  0  0  0  0  0  0
   -3.8970    8.2500    0.0000 N   0  0  0  0  0  0  0  0  0  0  0  0
   -5.1960    9.0000    0.0000 C   0  0  0  0  0  0  0  0  0  0  0  0
   -5.1960   10.5000    0.0000 C   0  0  0  0  0  0  0  0  0  0  0  0
   -2.5980    9.0000    0.0000 C   0  0  0  0  0  0  0  0  0  0  0  0
   -2.5980   10.5000    0.0000 C   0  0  0  0  0  0  0  0  0  0  0  0
  1  2  1  0  0  0  0
  2  3  1  0  0  0  0
  3  4  1  0  0  0  0
  4  5  1  0  0  0  0
  5  6  1  0  0  0  0
  6  7  1  0  0  0  0
  6 11  2  0  0  0  0
  7  8  2  0  0  0  0
  8  9  1  0  0  0  0
  8 13  1  0  0  0  0
  9 10  2  0  0  0  0
 10 11  1  0  0  0  0
 11 12  1  0  0  0  0
 13 14  2  0  0  0  0
 13 15  1  0  0  0  0
 15 16  1  0  0  0  0
 16 17  1  0  0  0  0
 17 18  1  0  0  0  0
 18 19  1  0  0  0  0
 18 21  1  0  0  0  0
 19 20  1  0  0  0  0
 21 22  1  0  0  0  0
M  END
>  <n>
246

>  <SMILES>
O(CCCC)c1cc(ccc1N)C(OCCN(CC)CC)=O

>  <IC50>
309.1

>  <Class>
0

>  <NAME>
BENOXINATE

>  <INCHI_KEY>
CMHHMUWAYWTMGS-UHFFFAOYSA-N

>  <Reference>
Mitigating the inhibition of human Bile Salt Export Pump by drugs_ opportunities provided by physicochemical property modulation,  in-silico modeling and structural modification_SI

$$$$
BENSERAZIDE
  MOE2013           2D

 18 18  0  0  1  0  0  0  0  0999 V2000
    0.0000    0.0000    0.0000 C   0  0  0  0  0  0  0  0  0  0  0  0
    0.0000    1.5000    0.0000 C   0  0  0  0  0  0  0  0  0  0  0  0
   -1.2990    2.2500    0.0000 C   0  0  0  0  0  0  0  0  0  0  0  0
   -2.5980    1.5000    0.0000 C   0  0  0  0  0  0  0  0  0  0  0  0
   -2.5980    0.0000    0.0000 C   0  0  0  0  0  0  0  0  0  0  0  0
   -1.2990   -0.7500    0.0000 C   0  0  0  0  0  0  0  0  0  0  0  0
   -1.2990   -2.2500    0.0000 C   0  0  0  0  0  0  0  0  0  0  0  0
    0.0000   -3.0000    0.0000 N   0  0  0  0  0  0  0  0  0  0  0  0
    0.0000   -4.5000    0.0000 N   0  0  0  0  0  0  0  0  0  0  0  0
    1.2990   -5.2500    0.0000 C   0  0  0  0  0  0  0  0  0  0  0  0
    2.5980   -4.5000    0.0000 O   0  0  0  0  0  0  0  0  0  0  0  0
    1.2990   -6.7500    0.0000 C   0  0  3  0  0  0  0  0  0  0  0  0
    2.5980   -7.5000    0.0000 C   0  0  0  0  0  0  0  0  0  0  0  0
    2.5980   -9.0000    0.0000 O   0  0  0  0  0  0  0  0  0  0  0  0
    0.0000   -7.5000    0.0000 N   0  0  0  0  0  0  0  0  0  0  0  0
   -3.8970   -0.7500    0.0000 O   0  0  0  0  0  0  0  0  0  0  0  0
   -3.8970    2.2500    0.0000 O   0  0  0  0  0  0  0  0  0  0  0  0
   -1.2990    3.7500    0.0000 O   0  0  0  0  0  0  0  0  0  0  0  0
  1  2  1  0  0  0  0
  1  6  2  0  0  0  0
  2  3  2  0  0  0  0
  3  4  1  0  0  0  0
  3 18  1  0  0  0  0
  4  5  2  0  0  0  0
  4 17  1  0  0  0  0
  5  6  1  0  0  0  0
  5 16  1  0  0  0  0
  6  7  1  0  0  0  0
  7  8  1  0  0  0  0
  8  9  1  0  0  0  0
  9 10  1  0  0  0  0
 10 11  2  0  0  0  0
 10 12  1  0  0  0  0
 12 13  1  0  0  0  0
 12 15  1  0  0  0  0
 13 14  1  0  0  0  0
M  END
>  <n>
247

>  <SMILES>
Oc1c(O)c(O)ccc1CNNC(=O)C(N)CO

>  <IC50>
116.6

>  <Class>
0

>  <NAME>
BENSERAZIDE

>  <INCHI_KEY>
BNQDCRGUHNALGH-UHFFFAOYSA-N

>  <Reference>
Mitigating the inhibition of human Bile Salt Export Pump by drugs_ opportunities provided by physicochemical property modulation,  in-silico modeling and structural modification_SI

$$$$
BENZOCAINE
  MOE2013           2D

 12 12  0  0  0  0  0  0  0  0999 V2000
    2.5980   -4.5000    0.0000 C   0  0  0  0  0  0  0  0  0  0  0  0
    2.5980   -3.0000    0.0000 C   0  0  0  0  0  0  0  0  0  0  0  0
    1.2990   -2.2500    0.0000 O   0  0  0  0  0  0  0  0  0  0  0  0
    1.2990   -0.7500    0.0000 C   0  0  0  0  0  0  0  0  0  0  0  0
    2.5980    0.0000    0.0000 O   0  0  0  0  0  0  0  0  0  0  0  0
    0.0000    0.0000    0.0000 C   0  0  0  0  0  0  0  0  0  0  0  0
    0.0000    1.5000    0.0000 C   0  0  0  0  0  0  0  0  0  0  0  0
   -1.2990    2.2500    0.0000 C   0  0  0  0  0  0  0  0  0  0  0  0
   -2.5980    1.5000    0.0000 C   0  0  0  0  0  0  0  0  0  0  0  0
   -2.5980    0.0000    0.0000 C   0  0  0  0  0  0  0  0  0  0  0  0
   -1.2990   -0.7500    0.0000 C   0  0  0  0  0  0  0  0  0  0  0  0
   -3.8970    2.2500    0.0000 N   0  0  0  0  0  0  0  0  0  0  0  0
  1  2  1  0  0  0  0
  2  3  1  0  0  0  0
  3  4  1  0  0  0  0
  4  5  2  0  0  0  0
  4  6  1  0  0  0  0
  6  7  1  0  0  0  0
  6 11  2  0  0  0  0
  7  8  2  0  0  0  0
  8  9  1  0  0  0  0
  9 10  2  0  0  0  0
  9 12  1  0  0  0  0
 10 11  1  0  0  0  0
M  END
>  <n>
248

>  <SMILES>
O(C(=O)c1ccc(N)cc1)CC

>  <IC50>
>1000

>  <Class>
0

>  <NAME>
BENZOCAINE

>  <INCHI_KEY>
BLFLLBZGZJTVJG-UHFFFAOYSA-N

>  <Reference>
Mitigating the inhibition of human Bile Salt Export Pump by drugs_ opportunities provided by physicochemical property modulation,  in-silico modeling and structural modification_SI

$$$$
BENZONATATE
  MOE2013           2D

 42 42  0  0  0  0  0  0  0  0999 V2000
    3.8970   -5.2500    0.0000 C   0  0  0  0  0  0  0  0  0  0  0  0
    2.5980   -4.5000    0.0000 C   0  0  0  0  0  0  0  0  0  0  0  0
    2.5980   -3.0000    0.0000 C   0  0  0  0  0  0  0  0  0  0  0  0
    1.2990   -2.2500    0.0000 C   0  0  0  0  0  0  0  0  0  0  0  0
    1.2990   -0.7500    0.0000 N   0  0  0  0  0  0  0  0  0  0  0  0
    0.0000    0.0000    0.0000 C   0  0  0  0  0  0  0  0  0  0  0  0
    0.0000    1.5000    0.0000 C   0  0  0  0  0  0  0  0  0  0  0  0
   -1.2990    2.2500    0.0000 C   0  0  0  0  0  0  0  0  0  0  0  0
   -2.5980    1.5000    0.0000 C   0  0  0  0  0  0  0  0  0  0  0  0
   -2.5980    0.0000    0.0000 C   0  0  0  0  0  0  0  0  0  0  0  0
   -1.2990   -0.7500    0.0000 C   0  0  0  0  0  0  0  0  0  0  0  0
   -3.8970    2.2500    0.0000 C   0  0  0  0  0  0  0  0  0  0  0  0
   -5.1960    1.5000    0.0000 O   0  0  0  0  0  0  0  0  0  0  0  0
   -3.8970    3.7500    0.0000 O   0  0  0  0  0  0  0  0  0  0  0  0
   -5.1960    4.5000    0.0000 C   0  0  0  0  0  0  0  0  0  0  0  0
   -5.1960    6.0000    0.0000 C   0  0  0  0  0  0  0  0  0  0  0  0
   -6.4950    6.7500    0.0000 O   0  0  0  0  0  0  0  0  0  0  0  0
   -6.4950    8.2500    0.0000 C   0  0  0  0  0  0  0  0  0  0  0  0
   -7.7940    9.0000    0.0000 C   0  0  0  0  0  0  0  0  0  0  0  0
   -7.7940   10.5000    0.0000 O   0  0  0  0  0  0  0  0  0  0  0  0
   -9.0930   11.2500    0.0000 C   0  0  0  0  0  0  0  0  0  0  0  0
   -9.0930   12.7500    0.0000 C   0  0  0  0  0  0  0  0  0  0  0  0
  -10.3920   13.5000    0.0000 O   0  0  0  0  0  0  0  0  0  0  0  0
  -10.3920   15.0000    0.0000 C   0  0  0  0  0  0  0  0  0  0  0  0
  -11.6910   15.7500    0.0000 C   0  0  0  0  0  0  0  0  0  0  0  0
  -11.6910   17.2500    0.0000 O   0  0  0  0  0  0  0  0  0  0  0  0
  -12.9900   18.0000    0.0000 C   0  0  0  0  0  0  0  0  0  0  0  0
  -12.9900   19.5000    0.0000 C   0  0  0  0  0  0  0  0  0  0  0  0
  -14.2890   20.2500    0.0000 O   0  0  0  0  0  0  0  0  0  0  0  0
  -14.2890   21.7500    0.0000 C   0  0  0  0  0  0  0  0  0  0  0  0
  -15.5880   22.5000    0.0000 C   0  0  0  0  0  0  0  0  0  0  0  0
  -15.5880   24.0000    0.0000 O   0  0  0  0  0  0  0  0  0  0  0  0
  -16.8880   24.7500    0.0000 C   0  0  0  0  0  0  0  0  0  0  0  0
  -16.8880   26.2500    0.0000 C   0  0  0  0  0  0  0  0  0  0  0  0
  -18.1860   27.0000    0.0000 O   0  0  0  0  0  0  0  0  0  0  0  0
  -18.1860   28.5000    0.0000 C   0  0  0  0  0  0  0  0  0  0  0  0
  -19.4860   29.2500    0.0000 C   0  0  0  0  0  0  0  0  0  0  0  0
  -19.4860   30.7500    0.0000 O   0  0  0  0  0  0  0  0  0  0  0  0
  -20.7850   31.5000    0.0000 C   0  0  0  0  0  0  0  0  0  0  0  0
  -20.7850   33.0000    0.0000 C   0  0  0  0  0  0  0  0  0  0  0  0
  -22.0840   33.7500    0.0000 O   0  0  0  0  0  0  0  0  0  0  0  0
  -22.0840   35.2500    0.0000 C   0  0  0  0  0  0  0  0  0  0  0  0
  1  2  1  0  0  0  0
  2  3  1  0  0  0  0
  3  4  1  0  0  0  0
  4  5  1  0  0  0  0
  5  6  1  0  0  0  0
  6  7  1  0  0  0  0
  6 11  2  0  0  0  0
  7  8  2  0  0  0  0
  8  9  1  0  0  0  0
  9 10  2  0  0  0  0
  9 12  1  0  0  0  0
 10 11  1  0  0  0  0
 12 13  2  0  0  0  0
 12 14  1  0  0  0  0
 14 15  1  0  0  0  0
 15 16  1  0  0  0  0
 16 17  1  0  0  0  0
 17 18  1  0  0  0  0
 18 19  1  0  0  0  0
 19 20  1  0  0  0  0
 20 21  1  0  0  0  0
 21 22  1  0  0  0  0
 22 23  1  0  0  0  0
 23 24  1  0  0  0  0
 24 25  1  0  0  0  0
 25 26  1  0  0  0  0
 26 27  1  0  0  0  0
 27 28  1  0  0  0  0
 28 29  1  0  0  0  0
 29 30  1  0  0  0  0
 30 31  1  0  0  0  0
 31 32  1  0  0  0  0
 32 33  1  0  0  0  0
 33 34  1  0  0  0  0
 34 35  1  0  0  0  0
 35 36  1  0  0  0  0
 36 37  1  0  0  0  0
 37 38  1  0  0  0  0
 38 39  1  0  0  0  0
 39 40  1  0  0  0  0
 40 41  1  0  0  0  0
 41 42  1  0  0  0  0
M  END
>  <n>
249

>  <SMILES>
O(C(=O)c1ccc(NCCCC)cc1)CCOCCOCCOCCOCCOCCOCCOCCOCCOC

>  <IC50>
<10

>  <Class>
1

>  <NAME>
BENZONATATE

>  <INCHI_KEY>
MAFMQEKGGFWBAB-UHFFFAOYSA-N

>  <Reference>
Mitigating the inhibition of human Bile Salt Export Pump by drugs_ opportunities provided by physicochemical property modulation,  in-silico modeling and structural modification_SI

$$$$
BENZOYLPAS
  MOE2013           2D

 19 20  0  0  0  0  0  0  0  0999 V2000
    0.0000    0.0000    0.0000 C   0  0  0  0  0  0  0  0  0  0  0  0
    0.0000    1.5000    0.0000 C   0  0  0  0  0  0  0  0  0  0  0  0
   -1.2990    2.2500    0.0000 C   0  0  0  0  0  0  0  0  0  0  0  0
   -2.5980    1.5000    0.0000 C   0  0  0  0  0  0  0  0  0  0  0  0
   -2.5980    0.0000    0.0000 C   0  0  0  0  0  0  0  0  0  0  0  0
   -1.2990   -0.7500    0.0000 C   0  0  0  0  0  0  0  0  0  0  0  0
   -3.8970    2.2500    0.0000 C   0  0  0  0  0  0  0  0  0  0  0  0
   -3.8970    3.7500    0.0000 O   0  0  0  0  0  0  0  0  0  0  0  0
   -5.1960    1.5000    0.0000 N   0  0  0  0  0  0  0  0  0  0  0  0
   -6.4950    2.2500    0.0000 C   0  0  0  0  0  0  0  0  0  0  0  0
   -6.4950    3.7500    0.0000 C   0  0  0  0  0  0  0  0  0  0  0  0
   -7.7940    4.5000    0.0000 C   0  0  0  0  0  0  0  0  0  0  0  0
   -9.0930    3.7500    0.0000 C   0  0  0  0  0  0  0  0  0  0  0  0
   -9.0930    2.2500    0.0000 C   0  0  0  0  0  0  0  0  0  0  0  0
   -7.7940    1.5000    0.0000 C   0  0  0  0  0  0  0  0  0  0  0  0
  -10.3920    1.5000    0.0000 O   0  0  0  0  0  0  0  0  0  0  0  0
  -10.3920    4.5000    0.0000 C   0  0  0  0  0  0  0  0  0  0  0  0
  -11.6910    3.7500    0.0000 O   0  0  0  0  0  0  0  0  0  0  0  0
  -10.3920    6.0000    0.0000 O   0  0  0  0  0  0  0  0  0  0  0  0
  1  2  1  0  0  0  0
  1  6  2  0  0  0  0
  2  3  2  0  0  0  0
  3  4  1  0  0  0  0
  4  5  2  0  0  0  0
  4  7  1  0  0  0  0
  5  6  1  0  0  0  0
  7  8  2  0  0  0  0
  7  9  1  0  0  0  0
  9 10  1  0  0  0  0
 10 11  1  0  0  0  0
 10 15  2  0  0  0  0
 11 12  2  0  0  0  0
 12 13  1  0  0  0  0
 13 14  2  0  0  0  0
 13 17  1  0  0  0  0
 14 15  1  0  0  0  0
 14 16  1  0  0  0  0
 17 18  2  0  0  0  0
 17 19  1  0  0  0  0
M  END
>  <n>
250

>  <SMILES>
Oc1cc(NC(=O)c2ccccc2)ccc1C(O)=O

>  <IC50>
>1000

>  <Class>
0

>  <NAME>
BENZOYLPAS

>  <INCHI_KEY>
GNZCRYWFWKFIDM-UHFFFAOYSA-N

>  <Reference>
Mitigating the inhibition of human Bile Salt Export Pump by drugs_ opportunities provided by physicochemical property modulation,  in-silico modeling and structural modification_SI

$$$$
BENZTHIAZIDE
  MOE2013           2D

 26 28  0  0  0  0  0  0  0  0999 V2000
    3.8970   -9.7500    0.0000 C   0  0  0  0  0  0  0  0  0  0  0  0
    5.1960   -9.0000    0.0000 C   0  0  0  0  0  0  0  0  0  0  0  0
    5.1960   -7.5000    0.0000 C   0  0  0  0  0  0  0  0  0  0  0  0
    3.8970   -6.7500    0.0000 C   0  0  0  0  0  0  0  0  0  0  0  0
    2.5980   -7.5000    0.0000 C   0  0  0  0  0  0  0  0  0  0  0  0
    2.5980   -9.0000    0.0000 C   0  0  0  0  0  0  0  0  0  0  0  0
    3.8970   -5.2500    0.0000 C   0  0  0  0  0  0  0  0  0  0  0  0
    2.5980   -4.5000    0.0000 S   0  0  0  0  0  0  0  0  0  0  0  0
    2.5980   -3.0000    0.0000 C   0  0  0  0  0  0  0  0  0  0  0  0
    1.2990   -2.2500    0.0000 C   0  0  0  0  0  0  0  0  0  0  0  0
    1.2990   -0.7500    0.0000 N   0  0  0  0  0  0  0  0  0  0  0  0
    0.0000    0.0000    0.0000 C   0  0  0  0  0  0  0  0  0  0  0  0
    0.0000    1.5000    0.0000 C   0  0  0  0  0  0  0  0  0  0  0  0
   -1.2990    2.2500    0.0000 C   0  0  0  0  0  0  0  0  0  0  0  0
   -2.5980    1.5000    0.0000 C   0  0  0  0  0  0  0  0  0  0  0  0
   -2.5980    0.0000    0.0000 C   0  0  0  0  0  0  0  0  0  0  0  0
   -1.2990   -0.7500    0.0000 C   0  0  0  0  0  0  0  0  0  0  0  0
   -1.2990   -2.2500    0.0000 S   0  0  0  0  0  0  0  0  0  0  0  0
   -2.7760   -1.9900    0.0000 O   0  0  0  0  0  0  0  0  0  0  0  0
   -1.8120   -3.6600    0.0000 O   0  0  0  0  0  0  0  0  0  0  0  0
    0.0000   -3.0000    0.0000 N   0  0  0  0  0  0  0  0  0  0  0  0
   -3.8970    2.2500    0.0000 S   0  0  0  0  0  0  0  0  0  0  0  0
   -3.8970    3.7500    0.0000 O   0  0  0  0  0  0  0  0  0  0  0  0
   -5.3740    2.5100    0.0000 O   0  0  0  0  0  0  0  0  0  0  0  0
   -4.4100    0.8400    0.0000 N   0  0  0  0  0  0  0  0  0  0  0  0
   -1.2990    3.7500    0.0000 Cl  0  0  0  0  0  0  0  0  0  0  0  0
  1  2  1  0  0  0  0
  1  6  2  0  0  0  0
  2  3  2  0  0  0  0
  3  4  1  0  0  0  0
  4  5  2  0  0  0  0
  4  7  1  0  0  0  0
  5  6  1  0  0  0  0
  7  8  1  0  0  0  0
  8  9  1  0  0  0  0
  9 10  1  0  0  0  0
 10 11  2  0  0  0  0
 10 21  1  0  0  0  0
 11 12  1  0  0  0  0
 12 13  1  0  0  0  0
 12 17  2  0  0  0  0
 13 14  2  0  0  0  0
 14 15  1  0  0  0  0
 14 26  1  0  0  0  0
 15 16  2  0  0  0  0
 15 22  1  0  0  0  0
 16 17  1  0  0  0  0
 17 18  1  0  0  0  0
 18 19  2  0  0  0  0
 18 20  2  0  0  0  0
 18 21  1  0  0  0  0
 22 23  2  0  0  0  0
 22 24  2  0  0  0  0
 22 25  1  0  0  0  0
M  END
>  <n>
251

>  <SMILES>
Clc1cc2N=C(NS(=O)(=O)c2cc1S(=O)(=O)N)CSCc1ccccc1

>  <IC50>
57.43

>  <Class>
0

>  <NAME>
BENZTHIAZIDE

>  <INCHI_KEY>
NDTSRXAMMQDVSW-UHFFFAOYSA-N

>  <Reference>
Mitigating the inhibition of human Bile Salt Export Pump by drugs_ opportunities provided by physicochemical property modulation,  in-silico modeling and structural modification_SI

$$$$
penicillin_G
  MOE2013           2D

 23 25  0  0  1  0  0  0  0  0999 V2000
    3.4230   -0.2540    0.0000 C   0  0  0  0  0  0  0  0  0  0  0  0
    2.3080    0.7500    0.0000 C   0  0  0  0  0  0  0  0  0  0  0  0
    1.4270   -0.4640    0.0000 C   0  0  3  0  0  0  0  0  0  0  0  0
    0.0000    0.0000    0.0000 N   0  0  0  0  0  0  0  0  0  0  0  0
    0.0000    1.5000    0.0000 C   0  0  3  0  0  0  0  0  0  0  0  0
    1.4270    1.9640    0.0000 S   0  0  0  0  0  0  0  0  0  0  0  0
   -1.5000    1.5000    0.0000 C   0  0  3  0  0  0  0  0  0  0  0  0
   -1.5000    0.0000    0.0000 C   0  0  0  0  0  0  0  0  0  0  0  0
   -2.5610   -1.0610    0.0000 O   0  0  0  0  0  0  0  0  0  0  0  0
   -2.5610    2.5610    0.0000 N   0  0  0  0  0  0  0  0  0  0  0  0
   -4.0100    2.1720    0.0000 C   0  0  0  0  0  0  0  0  0  0  0  0
   -4.3980    0.7240    0.0000 O   0  0  0  0  0  0  0  0  0  0  0  0
   -5.0700    3.2330    0.0000 C   0  0  0  0  0  0  0  0  0  0  0  0
   -6.5190    2.8450    0.0000 C   0  0  0  0  0  0  0  0  0  0  0  0
   -7.5800    3.9060    0.0000 C   0  0  0  0  0  0  0  0  0  0  0  0
   -9.0290    3.5170    0.0000 C   0  0  0  0  0  0  0  0  0  0  0  0
   -9.4170    2.0680    0.0000 C   0  0  0  0  0  0  0  0  0  0  0  0
   -8.3560    1.0080    0.0000 C   0  0  0  0  0  0  0  0  0  0  0  0
   -6.9070    1.3960    0.0000 C   0  0  0  0  0  0  0  0  0  0  0  0
    1.8900   -1.8900    0.0000 C   0  0  0  0  0  0  0  0  0  0  0  0
    3.3570   -2.2020    0.0000 O   0  0  0  0  0  0  0  0  0  0  0  0
    0.8860   -3.0050    0.0000 O   0  0  0  0  0  0  0  0  0  0  0  0
    3.4230    1.7540    0.0000 C   0  0  0  0  0  0  0  0  0  0  0  0
  1  2  1  0  0  0  0
  2  3  1  0  0  0  0
  2  6  1  0  0  0  0
  2 23  1  0  0  0  0
  3  4  1  0  0  0  0
  3 20  1  0  0  0  0
  4  5  1  0  0  0  0
  4  8  1  0  0  0  0
  5  6  1  0  0  0  0
  5  7  1  0  0  0  0
  7  8  1  0  0  0  0
  7 10  1  0  0  0  0
  8  9  2  0  0  0  0
 10 11  1  0  0  0  0
 11 12  2  0  0  0  0
 11 13  1  0  0  0  0
 13 14  1  0  0  0  0
 14 15  1  0  0  0  0
 14 19  2  0  0  0  0
 15 16  2  0  0  0  0
 16 17  1  0  0  0  0
 17 18  2  0  0  0  0
 18 19  1  0  0  0  0
 20 21  2  0  0  0  0
 20 22  1  0  0  0  0
M  END
>  <n>
252

>  <SMILES>
S1[C@H]2N([C@@H](C(O)=O)C1(C)C)C(=O)[C@H]2NC(=O)Cc1ccccc1

>  <IC50>
<10

>  <Class>
1

>  <NAME>
BENZYLPENICILLIN (PENICILLIN G)

>  <INCHI_KEY>
JGSARLDLIJGVTE-MBNYWOFBSA-N

>  <Reference>
Mitigating the inhibition of human Bile Salt Export Pump by drugs_ opportunities provided by physicochemical property modulation,  in-silico modeling and structural modification_SI

$$$$
BETA_CAROTENE
  MOE2013           2D

 40 41  0  0  0  0  0  0  0  0999 V2000
   25.9810    1.5000    0.0000 C   0  0  0  0  0  0  0  0  0  0  0  0
   25.9810    0.0000    0.0000 C   0  0  0  0  0  0  0  0  0  0  0  0
   24.6820   -0.7500    0.0000 C   0  0  0  0  0  0  0  0  0  0  0  0
   24.6820   -2.2500    0.0000 C   0  0  0  0  0  0  0  0  0  0  0  0
   25.9810   -3.0000    0.0000 C   0  0  0  0  0  0  0  0  0  0  0  0
   27.2800   -2.2500    0.0000 C   0  0  0  0  0  0  0  0  0  0  0  0
   27.2800   -0.7500    0.0000 C   0  0  0  0  0  0  0  0  0  0  0  0
   23.2040   -1.9900    0.0000 C   0  0  0  0  0  0  0  0  0  0  0  0
   24.1690   -3.6600    0.0000 C   0  0  0  0  0  0  0  0  0  0  0  0
   23.3830    0.0000    0.0000 C   0  0  0  0  0  0  0  0  0  0  0  0
   22.0840   -0.7500    0.0000 C   0  0  0  0  0  0  0  0  0  0  0  0
   20.7850    0.0000    0.0000 C   0  0  0  0  0  0  0  0  0  0  0  0
   19.4860   -0.7500    0.0000 C   0  0  0  0  0  0  0  0  0  0  0  0
   18.1860    0.0000    0.0000 C   0  0  0  0  0  0  0  0  0  0  0  0
   16.8880   -0.7500    0.0000 C   0  0  0  0  0  0  0  0  0  0  0  0
   15.5880    0.0000    0.0000 C   0  0  0  0  0  0  0  0  0  0  0  0
   14.2890   -0.7500    0.0000 C   0  0  0  0  0  0  0  0  0  0  0  0
   12.9900    0.0000    0.0000 C   0  0  0  0  0  0  0  0  0  0  0  0
   11.6910   -0.7500    0.0000 C   0  0  0  0  0  0  0  0  0  0  0  0
   10.3920    0.0000    0.0000 C   0  0  0  0  0  0  0  0  0  0  0  0
    9.0930   -0.7500    0.0000 C   0  0  0  0  0  0  0  0  0  0  0  0
    7.7940    0.0000    0.0000 C   0  0  0  0  0  0  0  0  0  0  0  0
    6.4950   -0.7500    0.0000 C   0  0  0  0  0  0  0  0  0  0  0  0
    5.1960    0.0000    0.0000 C   0  0  0  0  0  0  0  0  0  0  0  0
    3.8970   -0.7500    0.0000 C   0  0  0  0  0  0  0  0  0  0  0  0
    2.5980    0.0000    0.0000 C   0  0  0  0  0  0  0  0  0  0  0  0
    1.2990   -0.7500    0.0000 C   0  0  0  0  0  0  0  0  0  0  0  0
    0.0000    0.0000    0.0000 C   0  0  0  0  0  0  0  0  0  0  0  0
    0.0000    1.5000    0.0000 C   0  0  0  0  0  0  0  0  0  0  0  0
   -1.2990    2.2500    0.0000 C   0  0  0  0  0  0  0  0  0  0  0  0
   -2.5980    1.5000    0.0000 C   0  0  0  0  0  0  0  0  0  0  0  0
   -2.5980    0.0000    0.0000 C   0  0  0  0  0  0  0  0  0  0  0  0
   -1.2990   -0.7500    0.0000 C   0  0  0  0  0  0  0  0  0  0  0  0
   -2.2630   -1.8990    0.0000 C   0  0  0  0  0  0  0  0  0  0  0  0
   -0.3350   -1.8990    0.0000 C   0  0  0  0  0  0  0  0  0  0  0  0
    1.2990    2.2500    0.0000 C   0  0  0  0  0  0  0  0  0  0  0  0
    3.8970   -2.2500    0.0000 C   0  0  0  0  0  0  0  0  0  0  0  0
    9.0930   -2.2500    0.0000 C   0  0  0  0  0  0  0  0  0  0  0  0
   15.5880    1.5000    0.0000 C   0  0  0  0  0  0  0  0  0  0  0  0
   20.7850    1.5000    0.0000 C   0  0  0  0  0  0  0  0  0  0  0  0
  1  2  1  0  0  0  0
  2  3  2  0  0  0  0
  2  7  1  0  0  0  0
  3  4  1  0  0  0  0
  3 10  1  0  0  0  0
  4  5  1  0  0  0  0
  4  8  1  0  0  0  0
  4  9  1  0  0  0  0
  5  6  1  0  0  0  0
  6  7  1  0  0  0  0
 10 11  2  0  0  0  0
 11 12  1  0  0  0  0
 12 13  2  0  0  0  0
 12 40  1  0  0  0  0
 13 14  1  0  0  0  0
 14 15  2  0  0  0  0
 15 16  1  0  0  0  0
 16 17  2  0  0  0  0
 16 39  1  0  0  0  0
 17 18  1  0  0  0  0
 18 19  2  0  0  0  0
 19 20  1  0  0  0  0
 20 21  2  0  0  0  0
 21 22  1  0  0  0  0
 21 38  1  0  0  0  0
 22 23  2  0  0  0  0
 23 24  1  0  0  0  0
 24 25  2  0  0  0  0
 25 26  1  0  0  0  0
 25 37  1  0  0  0  0
 26 27  2  0  0  0  0
 27 28  1  0  0  0  0
 28 29  2  0  0  0  0
 28 33  1  0  0  0  0
 29 30  1  0  0  0  0
 29 36  1  0  0  0  0
 30 31  1  0  0  0  0
 31 32  1  0  0  0  0
 32 33  1  0  0  0  0
 33 34  1  0  0  0  0
 33 35  1  0  0  0  0
M  END
>  <n>
254

>  <SMILES>
C1CCC(C)=C(\C=C\C(=C\C=C\C(=C\C=C\C=C(\C=C\C=C(\C=C\C=2C(CCCC=2C)(C)C)/C)/C)\C)\C)C1(C)C

>  <IC50>
<10

>  <Class>
1

>  <NAME>
BETA CAROTENE

>  <INCHI_KEY>
OENHQHLEOONYIE-JLTXGRSLSA-N

>  <Reference>
Mitigating the inhibition of human Bile Salt Export Pump by drugs_ opportunities provided by physicochemical property modulation,  in-silico modeling and structural modification_SI

$$$$
BETAINE
  MOE2013           2D

  8  7  0  0  0  0  0  0  0  0999 V2000
    0.0000    0.0000    0.0000 C   0  0  0  0  0  0  0  0  0  0  0  0
    0.0000    1.5000    0.0000 N   0  3  0  0  0  0  0  0  0  0  0  0
    1.4770    1.2400    0.0000 C   0  0  0  0  0  0  0  0  0  0  0  0
    0.5130    2.9100    0.0000 C   0  0  0  0  0  0  0  0  0  0  0  0
   -1.2990    2.2500    0.0000 C   0  0  0  0  0  0  0  0  0  0  0  0
   -1.2990    3.7500    0.0000 C   0  0  0  0  0  0  0  0  0  0  0  0
   -2.5980    4.5000    0.0000 O   0  0  0  0  0  0  0  0  0  0  0  0
    0.0000    4.5000    0.0000 O   0  5  0  0  0  0  0  0  0  0  0  0
  1  2  1  0  0  0  0
  2  3  1  0  0  0  0
  2  4  1  0  0  0  0
  2  5  1  0  0  0  0
  5  6  1  0  0  0  0
  6  7  2  0  0  0  0
  6  8  1  0  0  0  0
M  CHG  1   2   1
M  CHG  1   8  -1
M  END
>  <n>
255

>  <SMILES>
OC(=O)C[N+](C)(C)C

>  <IC50>
>1000

>  <Class>
0

>  <NAME>
BETAINE

>  <INCHI_KEY>
KWIUHFFTVRNATP-UHFFFAOYSA-O

>  <Reference>
Mitigating, Dawson

$$$$
BETAXOLOL
  MOE2013           2D

 22 23  0  0  1  0  0  0  0  0999 V2000
    3.0000  -18.1860    0.0000 C   0  0  0  0  0  0  0  0  0  0  0  0
    2.2500  -16.8880    0.0000 C   0  0  0  0  0  0  0  0  0  0  0  0
    0.7500  -16.8880    0.0000 C   0  0  0  0  0  0  0  0  0  0  0  0
    3.0000  -15.5880    0.0000 N   0  0  0  0  0  0  0  0  0  0  0  0
    2.2500  -14.2890    0.0000 C   0  0  0  0  0  0  0  0  0  0  0  0
    3.0000  -12.9900    0.0000 C   0  0  3  0  0  0  0  0  0  0  0  0
    2.2500  -11.6910    0.0000 C   0  0  0  0  0  0  0  0  0  0  0  0
    3.0000  -10.3920    0.0000 O   0  0  0  0  0  0  0  0  0  0  0  0
    2.2500   -9.0930    0.0000 C   0  0  0  0  0  0  0  0  0  0  0  0
    3.0000   -7.7940    0.0000 C   0  0  0  0  0  0  0  0  0  0  0  0
    2.2500   -6.4950    0.0000 C   0  0  0  0  0  0  0  0  0  0  0  0
    0.7500   -6.4950    0.0000 C   0  0  0  0  0  0  0  0  0  0  0  0
    0.0000   -7.7940    0.0000 C   0  0  0  0  0  0  0  0  0  0  0  0
    0.7500   -9.0930    0.0000 C   0  0  0  0  0  0  0  0  0  0  0  0
    0.0000   -5.1960    0.0000 C   0  0  0  0  0  0  0  0  0  0  0  0
    0.7500   -3.8970    0.0000 C   0  0  0  0  0  0  0  0  0  0  0  0
    0.0000   -2.5980    0.0000 O   0  0  0  0  0  0  0  0  0  0  0  0
    0.7500   -1.2990    0.0000 C   0  0  0  0  0  0  0  0  0  0  0  0
    0.0000    0.0000    0.0000 C   0  0  0  0  0  0  0  0  0  0  0  0
    0.0000    1.5000    0.0000 C   0  0  0  0  0  0  0  0  0  0  0  0
   -1.2990    0.7500    0.0000 C   0  0  0  0  0  0  0  0  0  0  0  0
    4.5000  -12.9900    0.0000 O   0  0  0  0  0  0  0  0  0  0  0  0
  1  2  1  0  0  0  0
  2  3  1  0  0  0  0
  2  4  1  0  0  0  0
  4  5  1  0  0  0  0
  5  6  1  0  0  0  0
  6  7  1  0  0  0  0
  6 22  1  0  0  0  0
  7  8  1  0  0  0  0
  8  9  1  0  0  0  0
  9 10  1  0  0  0  0
  9 14  2  0  0  0  0
 10 11  2  0  0  0  0
 11 12  1  0  0  0  0
 12 13  2  0  0  0  0
 12 15  1  0  0  0  0
 13 14  1  0  0  0  0
 15 16  1  0  0  0  0
 16 17  1  0  0  0  0
 17 18  1  0  0  0  0
 18 19  1  0  0  0  0
 19 20  1  0  0  0  0
 19 21  1  0  0  0  0
 20 21  1  0  0  0  0
M  END
>  <n>
256

>  <SMILES>
O(CC(O)CNC(C)C)c1ccc(cc1)CCOCC1CC1

>  <IC50>
>1000

>  <Class>
0

>  <NAME>
BETAXOLOL

>  <INCHI_KEY>
NWIUTZDMDHAVTP-UHFFFAOYSA-N

>  <Reference>
Mitigating the inhibition of human Bile Salt Export Pump by drugs_ opportunities provided by physicochemical property modulation,  in-silico modeling and structural modification_SI

$$$$
BETHANECHOL
  MOE2013           2D

 11 10  0  0  1  0  0  0  0  0999 V2000
    0.0000    4.5000    0.0000 C   0  0  0  0  0  0  0  0  0  0  0  0
   -1.2990    3.7500    0.0000 C   0  0  3  0  0  0  0  0  0  0  0  0
   -1.2990    2.2500    0.0000 C   0  0  0  0  0  0  0  0  0  0  0  0
    0.0000    1.5000    0.0000 N   0  3  0  0  0  0  0  0  0  0  0  0
    0.0000    0.0000    0.0000 C   0  0  0  0  0  0  0  0  0  0  0  0
    1.4770    1.2400    0.0000 C   0  0  0  0  0  0  0  0  0  0  0  0
    0.5130    2.9100    0.0000 C   0  0  0  0  0  0  0  0  0  0  0  0
   -2.5980    4.5000    0.0000 O   0  0  0  0  0  0  0  0  0  0  0  0
   -2.5980    6.0000    0.0000 C   0  0  0  0  0  0  0  0  0  0  0  0
   -3.8970    6.7500    0.0000 O   0  5  0  0  0  0  0  0  0  0  0  0
   -1.2990    6.7500    0.0000 N   0  0  0  0  0  0  0  0  0  0  0  0
  1  2  1  0  0  0  0
  2  3  1  0  0  0  0
  2  8  1  0  0  0  0
  3  4  1  0  0  0  0
  4  5  1  0  0  0  0
  4  6  1  0  0  0  0
  4  7  1  0  0  0  0
  8  9  1  0  0  0  0
  9 10  1  0  0  0  0
  9 11  2  0  0  0  0
M  CHG  1   4   1
M  CHG  1  10  -1
M  END
>  <n>
257

>  <SMILES>
O(C(C[N+](C)(C)C)C)C(=O)N

>  <IC50>
>1000

>  <Class>
0

>  <NAME>
BETHANECHOL

>  <INCHI_KEY>
NZUPCNDJBJXXRF-UHFFFAOYSA-O

>  <Reference>
Mitigating the inhibition of human Bile Salt Export Pump by drugs_ opportunities provided by physicochemical property modulation,  in-silico modeling and structural modification_SI

$$$$
BEZAFIBRATE
  MOE2013           2D

 25 26  0  0  0  0  0  0  0  0999 V2000
    6.3170   -8.7400    0.0000 C   0  0  0  0  0  0  0  0  0  0  0  0
    7.7940   -9.0000    0.0000 C   0  0  0  0  0  0  0  0  0  0  0  0
    7.2810  -10.4100    0.0000 C   0  0  0  0  0  0  0  0  0  0  0  0
    9.0930   -9.7500    0.0000 C   0  0  0  0  0  0  0  0  0  0  0  0
    9.0930  -11.2500    0.0000 O   0  0  0  0  0  0  0  0  0  0  0  0
   10.3920   -9.0000    0.0000 O   0  0  0  0  0  0  0  0  0  0  0  0
    7.7940   -7.5000    0.0000 O   0  0  0  0  0  0  0  0  0  0  0  0
    6.4950   -6.7500    0.0000 C   0  0  0  0  0  0  0  0  0  0  0  0
    6.4950   -5.2500    0.0000 C   0  0  0  0  0  0  0  0  0  0  0  0
    5.1960   -4.5000    0.0000 C   0  0  0  0  0  0  0  0  0  0  0  0
    3.8970   -5.2500    0.0000 C   0  0  0  0  0  0  0  0  0  0  0  0
    3.8970   -6.7500    0.0000 C   0  0  0  0  0  0  0  0  0  0  0  0
    5.1960   -7.5000    0.0000 C   0  0  0  0  0  0  0  0  0  0  0  0
    2.5980   -4.5000    0.0000 C   0  0  0  0  0  0  0  0  0  0  0  0
    2.5980   -3.0000    0.0000 C   0  0  0  0  0  0  0  0  0  0  0  0
    1.2990   -2.2500    0.0000 N   0  0  0  0  0  0  0  0  0  0  0  0
    1.2990   -0.7500    0.0000 C   0  0  0  0  0  0  0  0  0  0  0  0
    2.5980    0.0000    0.0000 O   0  0  0  0  0  0  0  0  0  0  0  0
    0.0000    0.0000    0.0000 C   0  0  0  0  0  0  0  0  0  0  0  0
    0.0000    1.5000    0.0000 C   0  0  0  0  0  0  0  0  0  0  0  0
   -1.2990    2.2500    0.0000 C   0  0  0  0  0  0  0  0  0  0  0  0
   -2.5980    1.5000    0.0000 C   0  0  0  0  0  0  0  0  0  0  0  0
   -2.5980    0.0000    0.0000 C   0  0  0  0  0  0  0  0  0  0  0  0
   -1.2990   -0.7500    0.0000 C   0  0  0  0  0  0  0  0  0  0  0  0
   -3.8970    2.2500    0.0000 Cl  0  0  0  0  0  0  0  0  0  0  0  0
  1  2  1  0  0  0  0
  2  3  1  0  0  0  0
  2  4  1  0  0  0  0
  2  7  1  0  0  0  0
  4  5  2  0  0  0  0
  4  6  1  0  0  0  0
  7  8  1  0  0  0  0
  8  9  1  0  0  0  0
  8 13  2  0  0  0  0
  9 10  2  0  0  0  0
 10 11  1  0  0  0  0
 11 12  2  0  0  0  0
 11 14  1  0  0  0  0
 12 13  1  0  0  0  0
 14 15  1  0  0  0  0
 15 16  1  0  0  0  0
 16 17  1  0  0  0  0
 17 18  2  0  0  0  0
 17 19  1  0  0  0  0
 19 20  1  0  0  0  0
 19 24  2  0  0  0  0
 20 21  2  0  0  0  0
 21 22  1  0  0  0  0
 22 23  2  0  0  0  0
 22 25  1  0  0  0  0
 23 24  1  0  0  0  0
M  END
>  <n>
258

>  <SMILES>
Clc1ccc(cc1)C(=O)NCCc1ccc(OC(C(O)=O)(C)C)cc1

>  <IC50>
180.8

>  <Class>
0

>  <NAME>
BEZAFIBRATE

>  <INCHI_KEY>
IIBYAHWJQTYFKB-UHFFFAOYSA-N

>  <Reference>
Mitigating, Dawson

$$$$
BISACODYL
  MOE2013           2D

 27 29  0  0  0  0  0  0  0  0999 V2000
    2.5980   -9.0000    0.0000 C   0  0  0  0  0  0  0  0  0  0  0  0
    2.5980   -7.5000    0.0000 C   0  0  0  0  0  0  0  0  0  0  0  0
    3.8970   -6.7500    0.0000 O   0  0  0  0  0  0  0  0  0  0  0  0
    1.2990   -6.7500    0.0000 O   0  0  0  0  0  0  0  0  0  0  0  0
    1.2990   -5.2500    0.0000 C   0  0  0  0  0  0  0  0  0  0  0  0
    2.5980   -4.5000    0.0000 C   0  0  0  0  0  0  0  0  0  0  0  0
    2.5980   -3.0000    0.0000 C   0  0  0  0  0  0  0  0  0  0  0  0
    1.2990   -2.2500    0.0000 C   0  0  0  0  0  0  0  0  0  0  0  0
    0.0000   -3.0000    0.0000 C   0  0  0  0  0  0  0  0  0  0  0  0
    0.0000   -4.5000    0.0000 C   0  0  0  0  0  0  0  0  0  0  0  0
    1.2990   -0.7500    0.0000 C   0  0  0  0  0  0  0  0  0  0  0  0
    0.0000    0.0000    0.0000 C   0  0  0  0  0  0  0  0  0  0  0  0
    0.0000    1.5000    0.0000 C   0  0  0  0  0  0  0  0  0  0  0  0
   -1.2990    2.2500    0.0000 C   0  0  0  0  0  0  0  0  0  0  0  0
   -2.5980    1.5000    0.0000 C   0  0  0  0  0  0  0  0  0  0  0  0
   -2.5980    0.0000    0.0000 C   0  0  0  0  0  0  0  0  0  0  0  0
   -1.2990   -0.7500    0.0000 C   0  0  0  0  0  0  0  0  0  0  0  0
   -3.8970    2.2500    0.0000 O   0  0  0  0  0  0  0  0  0  0  0  0
   -3.8970    3.7500    0.0000 C   0  0  0  0  0  0  0  0  0  0  0  0
   -5.1960    4.5000    0.0000 O   0  0  0  0  0  0  0  0  0  0  0  0
   -2.5980    4.5000    0.0000 C   0  0  0  0  0  0  0  0  0  0  0  0
    2.5980    0.0000    0.0000 C   0  0  0  0  0  0  0  0  0  0  0  0
    3.8970   -0.7500    0.0000 C   0  0  0  0  0  0  0  0  0  0  0  0
    5.1960    0.0000    0.0000 C   0  0  0  0  0  0  0  0  0  0  0  0
    5.1960    1.5000    0.0000 C   0  0  0  0  0  0  0  0  0  0  0  0
    3.8970    2.2500    0.0000 C   0  0  0  0  0  0  0  0  0  0  0  0
    2.5980    1.5000    0.0000 N   0  0  0  0  0  0  0  0  0  0  0  0
  1  2  1  0  0  0  0
  2  3  2  0  0  0  0
  2  4  1  0  0  0  0
  4  5  1  0  0  0  0
  5  6  1  0  0  0  0
  5 10  2  0  0  0  0
  6  7  2  0  0  0  0
  7  8  1  0  0  0  0
  8  9  2  0  0  0  0
  8 11  1  0  0  0  0
  9 10  1  0  0  0  0
 11 12  1  0  0  0  0
 11 22  1  0  0  0  0
 12 13  1  0  0  0  0
 12 17  2  0  0  0  0
 13 14  2  0  0  0  0
 14 15  1  0  0  0  0
 15 16  2  0  0  0  0
 15 18  1  0  0  0  0
 16 17  1  0  0  0  0
 18 19  1  0  0  0  0
 19 20  2  0  0  0  0
 19 21  1  0  0  0  0
 22 23  1  0  0  0  0
 22 27  2  0  0  0  0
 23 24  2  0  0  0  0
 24 25  1  0  0  0  0
 25 26  2  0  0  0  0
 26 27  1  0  0  0  0
M  END
>  <n>
259

>  <SMILES>
O(C(=O)C)c1ccc(cc1)C(c1ccc(OC(=O)C)cc1)c1ncccc1

>  <IC50>
56.36

>  <Class>
0

>  <NAME>
BISACODYL

>  <INCHI_KEY>
KHOITXIGCFIULA-UHFFFAOYSA-N

>  <Reference>
Mitigating the inhibition of human Bile Salt Export Pump by drugs_ opportunities provided by physicochemical property modulation,  in-silico modeling and structural modification_SI

$$$$
Salicylic acid
  MOE2013           2D

 16 16  0  0  0  0  0  0  0  0999 V2000
    0.0000    0.0000    0.0000 C   0  0  0  0  0  0  0  0  0  0  0  0
    0.0000    1.5000    0.0000 C   0  0  0  0  0  0  0  0  0  0  0  0
   -1.2990    2.2500    0.0000 C   0  0  0  0  0  0  0  0  0  0  0  0
   -2.5980    1.5000    0.0000 C   0  0  0  0  0  0  0  0  0  0  0  0
   -2.5980    0.0000    0.0000 C   0  0  0  0  0  0  0  0  0  0  0  0
   -1.2990   -0.7500    0.0000 C   0  0  0  0  0  0  0  0  0  0  0  0
   -3.8970   -0.7500    0.0000 C   0  0  0  0  0  0  0  0  0  0  0  0
   -3.8970   -2.2500    0.0000 O   0  0  0  0  0  0  0  0  0  0  0  0
   -5.1960    0.0000    0.0000 O   0  0  0  0  0  0  0  0  0  0  0  0
   -3.8970    2.2500    0.0000 O   0  0  0  0  0  0  0  0  0  0  0  0
    0.9350   -0.5400    0.0000 H   0  0  0  0  0  0  0  0  0  0  0  0
    0.9350    2.0400    0.0000 H   0  0  0  0  0  0  0  0  0  0  0  0
   -1.2990    3.3300    0.0000 H   0  0  0  0  0  0  0  0  0  0  0  0
   -1.2990   -1.8300    0.0000 H   0  0  0  0  0  0  0  0  0  0  0  0
   -5.9820   -0.5510    0.0000 H   0  0  0  0  0  0  0  0  0  0  0  0
   -4.6830    1.6990    0.0000 H   0  0  0  0  0  0  0  0  0  0  0  0
  1  2  1  0  0  0  0
  1  6  2  0  0  0  0
  1 11  1  0  0  0  0
  2  3  2  0  0  0  0
  2 12  1  0  0  0  0
  3  4  1  0  0  0  0
  3 13  1  0  0  0  0
  4  5  2  0  0  0  0
  4 10  1  0  0  0  0
  5  6  1  0  0  0  0
  5  7  1  0  0  0  0
  6 14  1  0  0  0  0
  7  8  2  0  0  0  0
  7  9  1  0  0  0  0
  9 15  1  0  0  0  0
 10 16  1  0  0  0  0
M  END
>  <n>
260

>  <SMILES>
Oc1ccccc1C(O)=O

>  <IC50>
>1000

>  <Class>
0

>  <NAME>
BISMUTH SUBSALICYLATE

>  <INCHI_KEY>
YGSDEFSMJLZEOE-UHFFFAOYSA-N

>  <Reference>
Mitigating, Dawson

$$$$
BRETYLIUM
  MOE2013           2D

 13 13  0  0  0  0  0  0  0  0999 V2000
    5.1960    0.0000    0.0000 C   0  0  0  0  0  0  0  0  0  0  0  0
    3.8970   -0.7500    0.0000 C   0  0  0  0  0  0  0  0  0  0  0  0
    2.5980    0.0000    0.0000 N   0  3  0  0  0  0  0  0  0  0  0  0
    3.5620    1.1490    0.0000 C   0  0  0  0  0  0  0  0  0  0  0  0
    1.6340    1.1490    0.0000 C   0  0  0  0  0  0  0  0  0  0  0  0
    1.2990   -0.7500    0.0000 C   0  0  0  0  0  0  0  0  0  0  0  0
    0.0000    0.0000    0.0000 C   0  0  0  0  0  0  0  0  0  0  0  0
    0.0000    1.5000    0.0000 C   0  0  0  0  0  0  0  0  0  0  0  0
   -1.2990    2.2500    0.0000 C   0  0  0  0  0  0  0  0  0  0  0  0
   -2.5980    1.5000    0.0000 C   0  0  0  0  0  0  0  0  0  0  0  0
   -2.5980    0.0000    0.0000 C   0  0  0  0  0  0  0  0  0  0  0  0
   -1.2990   -0.7500    0.0000 C   0  0  0  0  0  0  0  0  0  0  0  0
   -1.2990   -2.2500    0.0000 Br  0  0  0  0  0  0  0  0  0  0  0  0
  1  2  1  0  0  0  0
  2  3  1  0  0  0  0
  3  4  1  0  0  0  0
  3  5  1  0  0  0  0
  3  6  1  0  0  0  0
  6  7  1  0  0  0  0
  7  8  1  0  0  0  0
  7 12  2  0  0  0  0
  8  9  2  0  0  0  0
  9 10  1  0  0  0  0
 10 11  2  0  0  0  0
 11 12  1  0  0  0  0
 12 13  1  0  0  0  0
M  CHG  1   3   1
M  END
>  <n>
262

>  <SMILES>
Brc1ccccc1C[N+](CC)(C)C

>  <IC50>
>1000

>  <Class>
0

>  <NAME>
BRETYLIUM

>  <INCHI_KEY>
AAQOQKQBGPPFNS-UHFFFAOYSA-N

>  <Reference>
Mitigating the inhibition of human Bile Salt Export Pump by drugs_ opportunities provided by physicochemical property modulation,  in-silico modeling and structural modification_SI

$$$$
BUMETANIDE
  MOE2013           2D

 25 26  0  0  0  0  0  0  0  0999 V2000
    6.4950   -0.7500    0.0000 C   0  0  0  0  0  0  0  0  0  0  0  0
    5.1960    0.0000    0.0000 C   0  0  0  0  0  0  0  0  0  0  0  0
    3.8970   -0.7500    0.0000 C   0  0  0  0  0  0  0  0  0  0  0  0
    2.5980    0.0000    0.0000 C   0  0  0  0  0  0  0  0  0  0  0  0
    1.2990   -0.7500    0.0000 N   0  0  0  0  0  0  0  0  0  0  0  0
    0.0000    0.0000    0.0000 C   0  0  0  0  0  0  0  0  0  0  0  0
    0.0000    1.5000    0.0000 C   0  0  0  0  0  0  0  0  0  0  0  0
   -1.2990    2.2500    0.0000 C   0  0  0  0  0  0  0  0  0  0  0  0
   -2.5980    1.5000    0.0000 C   0  0  0  0  0  0  0  0  0  0  0  0
   -2.5980    0.0000    0.0000 C   0  0  0  0  0  0  0  0  0  0  0  0
   -1.2990   -0.7500    0.0000 C   0  0  0  0  0  0  0  0  0  0  0  0
   -1.2990   -2.2500    0.0000 O   0  0  0  0  0  0  0  0  0  0  0  0
   -2.5980   -3.0000    0.0000 C   0  0  0  0  0  0  0  0  0  0  0  0
   -3.8970   -2.2500    0.0000 C   0  0  0  0  0  0  0  0  0  0  0  0
   -5.1960   -3.0000    0.0000 C   0  0  0  0  0  0  0  0  0  0  0  0
   -5.1960   -4.5000    0.0000 C   0  0  0  0  0  0  0  0  0  0  0  0
   -3.8970   -5.2500    0.0000 C   0  0  0  0  0  0  0  0  0  0  0  0
   -2.5980   -4.5000    0.0000 C   0  0  0  0  0  0  0  0  0  0  0  0
   -3.8970   -0.7500    0.0000 S   0  0  0  0  0  0  0  0  0  0  0  0
   -5.1960    0.0000    0.0000 O   0  0  0  0  0  0  0  0  0  0  0  0
   -4.8610   -1.8990    0.0000 O   0  0  0  0  0  0  0  0  0  0  0  0
   -2.9330   -1.8990    0.0000 N   0  0  0  0  0  0  0  0  0  0  0  0
   -1.2990    3.7500    0.0000 C   0  0  0  0  0  0  0  0  0  0  0  0
    0.0000    4.5000    0.0000 O   0  0  0  0  0  0  0  0  0  0  0  0
   -2.5980    4.5000    0.0000 O   0  0  0  0  0  0  0  0  0  0  0  0
  1  2  1  0  0  0  0
  2  3  1  0  0  0  0
  3  4  1  0  0  0  0
  4  5  1  0  0  0  0
  5  6  1  0  0  0  0
  6  7  1  0  0  0  0
  6 11  2  0  0  0  0
  7  8  2  0  0  0  0
  8  9  1  0  0  0  0
  8 23  1  0  0  0  0
  9 10  2  0  0  0  0
 10 11  1  0  0  0  0
 10 19  1  0  0  0  0
 11 12  1  0  0  0  0
 12 13  1  0  0  0  0
 13 14  1  0  0  0  0
 13 18  2  0  0  0  0
 14 15  2  0  0  0  0
 15 16  1  0  0  0  0
 16 17  2  0  0  0  0
 17 18  1  0  0  0  0
 19 20  2  0  0  0  0
 19 21  2  0  0  0  0
 19 22  1  0  0  0  0
 23 24  2  0  0  0  0
 23 25  1  0  0  0  0
M  END
>  <n>
264

>  <SMILES>
S(=O)(=O)(N)c1cc(cc(NCCCC)c1Oc1ccccc1)C(O)=O

>  <IC50>
526.4

>  <Class>
0

>  <NAME>
BUMETANIDE

>  <INCHI_KEY>
MAEIEVLCKWDQJH-UHFFFAOYSA-N

>  <Reference>
Mitigating the inhibition of human Bile Salt Export Pump by drugs_ opportunities provided by physicochemical property modulation,  in-silico modeling and structural modification_SI

$$$$
BUPHENINE
  MOE2013           2D

 22 23  0  0  1  0  0  0  0  0999 V2000
    3.8970   -2.2500    0.0000 C   0  0  0  0  0  0  0  0  0  0  0  0
    2.5980   -3.0000    0.0000 C   0  0  3  0  0  0  0  0  0  0  0  0
    1.2990   -2.2500    0.0000 C   0  0  0  0  0  0  0  0  0  0  0  0
    1.2990   -0.7500    0.0000 C   0  0  0  0  0  0  0  0  0  0  0  0
    0.0000    0.0000    0.0000 C   0  0  0  0  0  0  0  0  0  0  0  0
    0.0000    1.5000    0.0000 C   0  0  0  0  0  0  0  0  0  0  0  0
   -1.2990    2.2500    0.0000 C   0  0  0  0  0  0  0  0  0  0  0  0
   -2.5980    1.5000    0.0000 C   0  0  0  0  0  0  0  0  0  0  0  0
   -2.5980    0.0000    0.0000 C   0  0  0  0  0  0  0  0  0  0  0  0
   -1.2990   -0.7500    0.0000 C   0  0  0  0  0  0  0  0  0  0  0  0
    2.5980   -4.5000    0.0000 N   0  0  0  0  0  0  0  0  0  0  0  0
    3.8970   -5.2500    0.0000 C   0  0  3  0  0  0  0  0  0  0  0  0
    5.1960   -4.5000    0.0000 C   0  0  0  0  0  0  0  0  0  0  0  0
    3.8970   -6.7500    0.0000 C   0  0  3  0  0  0  0  0  0  0  0  0
    5.1960   -7.5000    0.0000 C   0  0  0  0  0  0  0  0  0  0  0  0
    5.1960   -9.0000    0.0000 C   0  0  0  0  0  0  0  0  0  0  0  0
    6.4950   -9.7500    0.0000 C   0  0  0  0  0  0  0  0  0  0  0  0
    7.7940   -9.0000    0.0000 C   0  0  0  0  0  0  0  0  0  0  0  0
    7.7940   -7.5000    0.0000 C   0  0  0  0  0  0  0  0  0  0  0  0
    6.4950   -6.7500    0.0000 C   0  0  0  0  0  0  0  0  0  0  0  0
    9.0930   -9.7500    0.0000 O   0  0  0  0  0  0  0  0  0  0  0  0
    2.5980   -7.5000    0.0000 O   0  0  0  0  0  0  0  0  0  0  0  0
  1  2  1  0  0  0  0
  2  3  1  0  0  0  0
  2 11  1  0  0  0  0
  3  4  1  0  0  0  0
  4  5  1  0  0  0  0
  5  6  1  0  0  0  0
  5 10  2  0  0  0  0
  6  7  2  0  0  0  0
  7  8  1  0  0  0  0
  8  9  2  0  0  0  0
  9 10  1  0  0  0  0
 11 12  1  0  0  0  0
 12 13  1  0  0  0  0
 12 14  1  0  0  0  0
 14 15  1  0  0  0  0
 14 22  1  0  0  0  0
 15 16  1  0  0  0  0
 15 20  2  0  0  0  0
 16 17  2  0  0  0  0
 17 18  1  0  0  0  0
 18 19  2  0  0  0  0
 18 21  1  0  0  0  0
 19 20  1  0  0  0  0
M  END
>  <n>
265

>  <SMILES>
Oc1ccc(cc1)C(O)C(NC(CCc1ccccc1)C)C

>  <IC50>
280.3

>  <Class>
0

>  <NAME>
BUPHENINE

>  <INCHI_KEY>
PTGXAUBQBSGPKF-UHFFFAOYSA-N

>  <Reference>
Mitigating the inhibition of human Bile Salt Export Pump by drugs_ opportunities provided by physicochemical property modulation,  in-silico modeling and structural modification_SI

$$$$
BUPROPION
  MOE2013           2D

 16 16  0  0  1  0  0  0  0  0999 V2000
    2.5980    1.5000    0.0000 C   0  0  0  0  0  0  0  0  0  0  0  0
    2.5980    0.0000    0.0000 C   0  0  3  0  0  0  0  0  0  0  0  0
    1.2990   -0.7500    0.0000 C   0  0  0  0  0  0  0  0  0  0  0  0
    1.2990   -2.2500    0.0000 O   0  0  0  0  0  0  0  0  0  0  0  0
    0.0000    0.0000    0.0000 C   0  0  0  0  0  0  0  0  0  0  0  0
    0.0000    1.5000    0.0000 C   0  0  0  0  0  0  0  0  0  0  0  0
   -1.2990    2.2500    0.0000 C   0  0  0  0  0  0  0  0  0  0  0  0
   -2.5980    1.5000    0.0000 C   0  0  0  0  0  0  0  0  0  0  0  0
   -2.5980    0.0000    0.0000 C   0  0  0  0  0  0  0  0  0  0  0  0
   -1.2990   -0.7500    0.0000 C   0  0  0  0  0  0  0  0  0  0  0  0
   -3.8970   -0.7500    0.0000 Cl  0  0  0  0  0  0  0  0  0  0  0  0
    3.8970   -0.7500    0.0000 N   0  0  0  0  0  0  0  0  0  0  0  0
    5.1960    0.0000    0.0000 C   0  0  0  0  0  0  0  0  0  0  0  0
    6.4950   -0.7500    0.0000 C   0  0  0  0  0  0  0  0  0  0  0  0
    6.1600    1.1490    0.0000 C   0  0  0  0  0  0  0  0  0  0  0  0
    4.2320    1.1490    0.0000 C   0  0  0  0  0  0  0  0  0  0  0  0
  1  2  1  0  0  0  0
  2  3  1  0  0  0  0
  2 12  1  0  0  0  0
  3  4  2  0  0  0  0
  3  5  1  0  0  0  0
  5  6  1  0  0  0  0
  5 10  2  0  0  0  0
  6  7  2  0  0  0  0
  7  8  1  0  0  0  0
  8  9  2  0  0  0  0
  9 10  1  0  0  0  0
  9 11  1  0  0  0  0
 12 13  1  0  0  0  0
 13 14  1  0  0  0  0
 13 15  1  0  0  0  0
 13 16  1  0  0  0  0
M  END
>  <n>
266

>  <SMILES>
Clc1cc(ccc1)C(=O)C(NC(C)(C)C)C

>  <IC50>
>1000

>  <Class>
0

>  <NAME>
BUPROPION

>  <INCHI_KEY>
SNPPWIUOZRMYNY-UHFFFAOYSA-N

>  <Reference>
Mitigating the inhibition of human Bile Salt Export Pump by drugs_ opportunities provided by physicochemical property modulation,  in-silico modeling and structural modification_SI

$$$$
BUSPIRONE
  MOE2013           2D

 28 31  0  0  0  0  0  0  0  0999 V2000
   14.8760   -7.5970    0.0000 C   0  0  0  0  0  0  0  0  0  0  0  0
   15.0330   -6.1050    0.0000 C   0  0  0  0  0  0  0  0  0  0  0  0
   13.8190   -5.2230    0.0000 N   0  0  0  0  0  0  0  0  0  0  0  0
   12.4490   -5.8330    0.0000 C   0  0  0  0  0  0  0  0  0  0  0  0
   12.2920   -7.3250    0.0000 N   0  0  0  0  0  0  0  0  0  0  0  0
   13.5060   -8.2070    0.0000 C   0  0  0  0  0  0  0  0  0  0  0  0
   11.2350   -4.9520    0.0000 N   0  0  0  0  0  0  0  0  0  0  0  0
   11.3920   -3.4600    0.0000 C   0  0  0  0  0  0  0  0  0  0  0  0
   10.1790   -2.5780    0.0000 C   0  0  0  0  0  0  0  0  0  0  0  0
    8.8080   -3.1880    0.0000 N   0  0  0  0  0  0  0  0  0  0  0  0
    8.6520   -4.6800    0.0000 C   0  0  0  0  0  0  0  0  0  0  0  0
    9.8650   -5.5620    0.0000 C   0  0  0  0  0  0  0  0  0  0  0  0
    7.5950   -2.3060    0.0000 C   0  0  0  0  0  0  0  0  0  0  0  0
    6.2240   -2.9170    0.0000 C   0  0  0  0  0  0  0  0  0  0  0  0
    5.0110   -2.0350    0.0000 C   0  0  0  0  0  0  0  0  0  0  0  0
    3.6410   -2.6450    0.0000 C   0  0  0  0  0  0  0  0  0  0  0  0
    2.4270   -1.7630    0.0000 N   0  0  0  0  0  0  0  0  0  0  0  0
    2.5840   -0.2720    0.0000 C   0  0  0  0  0  0  0  0  0  0  0  0
    3.9540    0.3380    0.0000 O   0  0  0  0  0  0  0  0  0  0  0  0
    1.3700    0.6100    0.0000 C   0  0  0  0  0  0  0  0  0  0  0  0
    0.0000    0.0000    0.0000 C   0  0  0  0  0  0  0  0  0  0  0  0
    0.0000    1.5000    0.0000 C   0  0  0  0  0  0  0  0  0  0  0  0
   -1.4270    1.9640    0.0000 C   0  0  0  0  0  0  0  0  0  0  0  0
   -2.3080    0.7500    0.0000 C   0  0  0  0  0  0  0  0  0  0  0  0
   -1.4270   -0.4640    0.0000 C   0  0  0  0  0  0  0  0  0  0  0  0
   -0.1570   -1.4920    0.0000 C   0  0  0  0  0  0  0  0  0  0  0  0
    1.0570   -2.3740    0.0000 C   0  0  0  0  0  0  0  0  0  0  0  0
    0.9000   -3.8650    0.0000 O   0  0  0  0  0  0  0  0  0  0  0  0
  1  2  1  0  0  0  0
  1  6  2  0  0  0  0
  2  3  2  0  0  0  0
  3  4  1  0  0  0  0
  4  5  2  0  0  0  0
  4  7  1  0  0  0  0
  5  6  1  0  0  0  0
  7  8  1  0  0  0  0
  7 12  1  0  0  0  0
  8  9  1  0  0  0  0
  9 10  1  0  0  0  0
 10 11  1  0  0  0  0
 10 13  1  0  0  0  0
 11 12  1  0  0  0  0
 13 14  1  0  0  0  0
 14 15  1  0  0  0  0
 15 16  1  0  0  0  0
 16 17  1  0  0  0  0
 17 18  1  0  0  0  0
 17 27  1  0  0  0  0
 18 19  2  0  0  0  0
 18 20  1  0  0  0  0
 20 21  1  0  0  0  0
 21 22  1  0  0  0  0
 21 25  1  0  0  0  0
 21 26  1  0  0  0  0
 22 23  1  0  0  0  0
 23 24  1  0  0  0  0
 24 25  1  0  0  0  0
 26 27  1  0  0  0  0
 27 28  2  0  0  0  0
M  END
>  <n>
267

>  <SMILES>
O=C1N(CCCCN2CCN(CC2)c2ncccn2)C(=O)CC2(C1)CCCC2

>  <IC50>
59.63

>  <Class>
0

>  <NAME>
BUSPIRONE

>  <INCHI_KEY>
QWCRAEMEVRGPNT-UHFFFAOYSA-N

>  <Reference>
Mitigating, Dawson

$$$$
BUSULFAN
  MOE2013           2D

 14 13  0  0  0  0  0  0  0  0999 V2000
    0.0000    0.0000    0.0000 C   0  0  0  0  0  0  0  0  0  0  0  0
    0.0000    1.5000    0.0000 S   0  0  0  0  0  0  0  0  0  0  0  0
    1.4770    1.2400    0.0000 O   0  0  0  0  0  0  0  0  0  0  0  0
    0.5130    2.9100    0.0000 O   0  0  0  0  0  0  0  0  0  0  0  0
   -1.2990    2.2500    0.0000 O   0  0  0  0  0  0  0  0  0  0  0  0
   -1.2990    3.7500    0.0000 C   0  0  0  0  0  0  0  0  0  0  0  0
   -2.5980    4.5000    0.0000 C   0  0  0  0  0  0  0  0  0  0  0  0
   -2.5980    6.0000    0.0000 C   0  0  0  0  0  0  0  0  0  0  0  0
   -3.8970    6.7500    0.0000 C   0  0  0  0  0  0  0  0  0  0  0  0
   -3.8970    8.2500    0.0000 O   0  0  0  0  0  0  0  0  0  0  0  0
   -5.1960    9.0000    0.0000 S   0  0  0  0  0  0  0  0  0  0  0  0
   -5.1960   10.5000    0.0000 O   0  0  0  0  0  0  0  0  0  0  0  0
   -6.6730    9.2600    0.0000 O   0  0  0  0  0  0  0  0  0  0  0  0
   -5.7090    7.5900    0.0000 C   0  0  0  0  0  0  0  0  0  0  0  0
  1  2  1  0  0  0  0
  2  3  2  0  0  0  0
  2  4  2  0  0  0  0
  2  5  1  0  0  0  0
  5  6  1  0  0  0  0
  6  7  1  0  0  0  0
  7  8  1  0  0  0  0
  8  9  1  0  0  0  0
  9 10  1  0  0  0  0
 10 11  1  0  0  0  0
 11 12  2  0  0  0  0
 11 13  2  0  0  0  0
 11 14  1  0  0  0  0
M  END
>  <n>
268

>  <SMILES>
S(OCCCCOS(=O)(=O)C)(=O)(=O)C

>  <IC50>
>1000

>  <Class>
0

>  <NAME>
BUSULFAN

>  <INCHI_KEY>
COVZYZSDYWQREU-UHFFFAOYSA-N

>  <Reference>
Mitigating the inhibition of human Bile Salt Export Pump by drugs_ opportunities provided by physicochemical property modulation,  in-silico modeling and structural modification_SI

$$$$
BUTACAINE
  MOE2013           2D

 22 22  0  0  0  0  0  0  0  0999 V2000
    6.4950  -11.2500    0.0000 C   0  0  0  0  0  0  0  0  0  0  0  0
    6.4950   -9.7500    0.0000 C   0  0  0  0  0  0  0  0  0  0  0  0
    5.1960   -9.0000    0.0000 C   0  0  0  0  0  0  0  0  0  0  0  0
    5.1960   -7.5000    0.0000 C   0  0  0  0  0  0  0  0  0  0  0  0
    3.8970   -6.7500    0.0000 N   0  0  0  0  0  0  0  0  0  0  0  0
    2.5980   -7.5000    0.0000 C   0  0  0  0  0  0  0  0  0  0  0  0
    2.5980   -9.0000    0.0000 C   0  0  0  0  0  0  0  0  0  0  0  0
    3.8970   -9.7500    0.0000 C   0  0  0  0  0  0  0  0  0  0  0  0
    3.8970  -11.2500    0.0000 C   0  0  0  0  0  0  0  0  0  0  0  0
    3.8970   -5.2500    0.0000 C   0  0  0  0  0  0  0  0  0  0  0  0
    2.5980   -4.5000    0.0000 C   0  0  0  0  0  0  0  0  0  0  0  0
    2.5980   -3.0000    0.0000 C   0  0  0  0  0  0  0  0  0  0  0  0
    1.2990   -2.2500    0.0000 O   0  0  0  0  0  0  0  0  0  0  0  0
    1.2990   -0.7500    0.0000 C   0  0  0  0  0  0  0  0  0  0  0  0
    2.5980    0.0000    0.0000 O   0  0  0  0  0  0  0  0  0  0  0  0
    0.0000    0.0000    0.0000 C   0  0  0  0  0  0  0  0  0  0  0  0
    0.0000    1.5000    0.0000 C   0  0  0  0  0  0  0  0  0  0  0  0
   -1.2990    2.2500    0.0000 C   0  0  0  0  0  0  0  0  0  0  0  0
   -2.5980    1.5000    0.0000 C   0  0  0  0  0  0  0  0  0  0  0  0
   -2.5980    0.0000    0.0000 C   0  0  0  0  0  0  0  0  0  0  0  0
   -1.2990   -0.7500    0.0000 C   0  0  0  0  0  0  0  0  0  0  0  0
   -3.8970    2.2500    0.0000 N   0  0  0  0  0  0  0  0  0  0  0  0
  1  2  1  0  0  0  0
  2  3  1  0  0  0  0
  3  4  1  0  0  0  0
  4  5  1  0  0  0  0
  5  6  1  0  0  0  0
  5 10  1  0  0  0  0
  6  7  1  0  0  0  0
  7  8  1  0  0  0  0
  8  9  1  0  0  0  0
 10 11  1  0  0  0  0
 11 12  1  0  0  0  0
 12 13  1  0  0  0  0
 13 14  1  0  0  0  0
 14 15  2  0  0  0  0
 14 16  1  0  0  0  0
 16 17  1  0  0  0  0
 16 21  2  0  0  0  0
 17 18  2  0  0  0  0
 18 19  1  0  0  0  0
 19 20  2  0  0  0  0
 19 22  1  0  0  0  0
 20 21  1  0  0  0  0
M  END
>  <n>
269

>  <SMILES>
O(C(=O)c1ccc(N)cc1)CCCN(CCCC)CCCC

>  <IC50>
487.5

>  <Class>
0

>  <NAME>
BUTACAINE

>  <INCHI_KEY>
HQFWVSGBVLEQGA-UHFFFAOYSA-N

>  <Reference>
Mitigating the inhibition of human Bile Salt Export Pump by drugs_ opportunities provided by physicochemical property modulation,  in-silico modeling and structural modification_SI

$$$$
CAFFEINE
  MOE2013           2D

 14 15  0  0  0  0  0  0  0  0999 V2000
    1.2140   -0.8820    0.0000 C   0  0  0  0  0  0  0  0  0  0  0  0
    0.0000    0.0000    0.0000 N   0  0  0  0  0  0  0  0  0  0  0  0
    0.0000    1.5000    0.0000 C   0  0  0  0  0  0  0  0  0  0  0  0
   -1.4270    1.9640    0.0000 N   0  0  0  0  0  0  0  0  0  0  0  0
   -2.3080    0.7500    0.0000 C   0  0  0  0  0  0  0  0  0  0  0  0
   -1.4270   -0.4640    0.0000 C   0  0  0  0  0  0  0  0  0  0  0  0
   -2.0370   -1.8340    0.0000 C   0  0  0  0  0  0  0  0  0  0  0  0
   -1.1550   -3.0470    0.0000 O   0  0  0  0  0  0  0  0  0  0  0  0
   -3.5280   -1.9910    0.0000 N   0  0  0  0  0  0  0  0  0  0  0  0
   -4.4100   -0.7770    0.0000 C   0  0  0  0  0  0  0  0  0  0  0  0
   -5.9020   -0.9340    0.0000 O   0  0  0  0  0  0  0  0  0  0  0  0
   -3.8000    0.5930    0.0000 N   0  0  0  0  0  0  0  0  0  0  0  0
   -4.6820    1.8070    0.0000 C   0  0  0  0  0  0  0  0  0  0  0  0
   -4.1390   -3.3610    0.0000 C   0  0  0  0  0  0  0  0  0  0  0  0
  1  2  1  0  0  0  0
  2  3  1  0  0  0  0
  2  6  1  0  0  0  0
  3  4  2  0  0  0  0
  4  5  1  0  0  0  0
  5  6  2  0  0  0  0
  5 12  1  0  0  0  0
  6  7  1  0  0  0  0
  7  8  2  0  0  0  0
  7  9  1  0  0  0  0
  9 10  1  0  0  0  0
  9 14  1  0  0  0  0
 10 11  2  0  0  0  0
 10 12  1  0  0  0  0
 12 13  1  0  0  0  0
M  END
>  <n>
270

>  <SMILES>
O=C1N(C)C(=O)N(c2ncn(c12)C)C

>  <IC50>
>1000

>  <Class>
0

>  <NAME>
CAFFEINE

>  <INCHI_KEY>
RYYVLZVUVIJVGH-UHFFFAOYSA-N

>  <Reference>
Mitigating the inhibition of human Bile Salt Export Pump by drugs_ opportunities provided by physicochemical property modulation,  in-silico modeling and structural modification_SI

$$$$
CAPOBENIC_ACID
  MOE2013           2D

 23 23  0  0  0  0  0  0  0  0999 V2000
    2.5980    0.0000    0.0000 C   0  0  0  0  0  0  0  0  0  0  0  0
    1.2990   -0.7500    0.0000 O   0  0  0  0  0  0  0  0  0  0  0  0
    0.0000    0.0000    0.0000 C   0  0  0  0  0  0  0  0  0  0  0  0
    0.0000    1.5000    0.0000 C   0  0  0  0  0  0  0  0  0  0  0  0
   -1.2990    2.2500    0.0000 C   0  0  0  0  0  0  0  0  0  0  0  0
   -2.5980    1.5000    0.0000 C   0  0  0  0  0  0  0  0  0  0  0  0
   -2.5980    0.0000    0.0000 C   0  0  0  0  0  0  0  0  0  0  0  0
   -1.2990   -0.7500    0.0000 C   0  0  0  0  0  0  0  0  0  0  0  0
   -1.2990   -2.2500    0.0000 O   0  0  0  0  0  0  0  0  0  0  0  0
   -2.5980   -3.0000    0.0000 C   0  0  0  0  0  0  0  0  0  0  0  0
   -3.8970   -0.7500    0.0000 O   0  0  0  0  0  0  0  0  0  0  0  0
   -5.1960    0.0000    0.0000 C   0  0  0  0  0  0  0  0  0  0  0  0
   -1.2990    3.7500    0.0000 C   0  0  0  0  0  0  0  0  0  0  0  0
   -2.5980    4.5000    0.0000 O   0  0  0  0  0  0  0  0  0  0  0  0
    0.0000    4.5000    0.0000 N   0  0  0  0  0  0  0  0  0  0  0  0
    0.0000    6.0000    0.0000 C   0  0  0  0  0  0  0  0  0  0  0  0
    1.2990    6.7500    0.0000 C   0  0  0  0  0  0  0  0  0  0  0  0
    1.2990    8.2500    0.0000 C   0  0  0  0  0  0  0  0  0  0  0  0
    2.5980    9.0000    0.0000 C   0  0  0  0  0  0  0  0  0  0  0  0
    2.5980   10.5000    0.0000 C   0  0  0  0  0  0  0  0  0  0  0  0
    3.8970   11.2500    0.0000 C   0  0  0  0  0  0  0  0  0  0  0  0
    3.8970   12.7500    0.0000 O   0  0  0  0  0  0  0  0  0  0  0  0
    5.1960   10.5000    0.0000 O   0  0  0  0  0  0  0  0  0  0  0  0
  1  2  1  0  0  0  0
  2  3  1  0  0  0  0
  3  4  1  0  0  0  0
  3  8  2  0  0  0  0
  4  5  2  0  0  0  0
  5  6  1  0  0  0  0
  5 13  1  0  0  0  0
  6  7  2  0  0  0  0
  7  8  1  0  0  0  0
  7 11  1  0  0  0  0
  8  9  1  0  0  0  0
  9 10  1  0  0  0  0
 11 12  1  0  0  0  0
 13 14  2  0  0  0  0
 13 15  1  0  0  0  0
 15 16  1  0  0  0  0
 16 17  1  0  0  0  0
 17 18  1  0  0  0  0
 18 19  1  0  0  0  0
 19 20  1  0  0  0  0
 20 21  1  0  0  0  0
 21 22  2  0  0  0  0
 21 23  1  0  0  0  0
M  END
>  <n>
272

>  <SMILES>
O(C)c1c(OC)cc(cc1OC)C(=O)NCCCCCC(O)=O

>  <IC50>
>1000

>  <Class>
0

>  <NAME>
CAPOBENIC ACID

>  <INCHI_KEY>
MPTXLVRHYGBOQY-UHFFFAOYSA-N

>  <Reference>
Mitigating the inhibition of human Bile Salt Export Pump by drugs_ opportunities provided by physicochemical property modulation,  in-silico modeling and structural modification_SI

$$$$
CAPSAICIN
  MOE2013           2D

 22 22  0  0  0  0  0  0  0  0999 V2000
   14.2890   -0.7500    0.0000 C   0  0  0  0  0  0  0  0  0  0  0  0
   12.9900    0.0000    0.0000 C   0  0  0  0  0  0  0  0  0  0  0  0
   12.9900    1.5000    0.0000 C   0  0  0  0  0  0  0  0  0  0  0  0
   11.6910   -0.7500    0.0000 C   0  0  0  0  0  0  0  0  0  0  0  0
   10.3920    0.0000    0.0000 C   0  0  0  0  0  0  0  0  0  0  0  0
    9.0930   -0.7500    0.0000 C   0  0  0  0  0  0  0  0  0  0  0  0
    7.7940    0.0000    0.0000 C   0  0  0  0  0  0  0  0  0  0  0  0
    6.4950   -0.7500    0.0000 C   0  0  0  0  0  0  0  0  0  0  0  0
    5.1960    0.0000    0.0000 C   0  0  0  0  0  0  0  0  0  0  0  0
    3.8970   -0.7500    0.0000 C   0  0  0  0  0  0  0  0  0  0  0  0
    3.8970   -2.2500    0.0000 O   0  0  0  0  0  0  0  0  0  0  0  0
    2.5980    0.0000    0.0000 N   0  0  0  0  0  0  0  0  0  0  0  0
    1.2990   -0.7500    0.0000 C   0  0  0  0  0  0  0  0  0  0  0  0
    0.0000    0.0000    0.0000 C   0  0  0  0  0  0  0  0  0  0  0  0
    0.0000    1.5000    0.0000 C   0  0  0  0  0  0  0  0  0  0  0  0
   -1.2990    2.2500    0.0000 C   0  0  0  0  0  0  0  0  0  0  0  0
   -2.5980    1.5000    0.0000 C   0  0  0  0  0  0  0  0  0  0  0  0
   -2.5980    0.0000    0.0000 C   0  0  0  0  0  0  0  0  0  0  0  0
   -1.2990   -0.7500    0.0000 C   0  0  0  0  0  0  0  0  0  0  0  0
   -3.8970   -0.7500    0.0000 O   0  0  0  0  0  0  0  0  0  0  0  0
   -5.1960    0.0000    0.0000 C   0  0  0  0  0  0  0  0  0  0  0  0
   -3.8970    2.2500    0.0000 O   0  0  0  0  0  0  0  0  0  0  0  0
  1  2  1  0  0  0  0
  2  3  1  0  0  0  0
  2  4  1  0  0  0  0
  4  5  2  0  0  0  0
  5  6  1  0  0  0  0
  6  7  1  0  0  0  0
  7  8  1  0  0  0  0
  8  9  1  0  0  0  0
  9 10  1  0  0  0  0
 10 11  2  0  0  0  0
 10 12  1  0  0  0  0
 12 13  1  0  0  0  0
 13 14  1  0  0  0  0
 14 15  2  0  0  0  0
 14 19  1  0  0  0  0
 15 16  1  0  0  0  0
 16 17  2  0  0  0  0
 17 18  1  0  0  0  0
 17 22  1  0  0  0  0
 18 19  2  0  0  0  0
 18 20  1  0  0  0  0
 20 21  1  0  0  0  0
M  END
>  <n>
273

>  <SMILES>
O(C)c1cc(ccc1O)CNC(=O)CCCC\C=C\C(C)C

>  <IC50>
<10

>  <Class>
1

>  <NAME>
CAPSAICIN

>  <INCHI_KEY>
YKPUWZUDDOIDPM-SOFGYWHQSA-N

>  <Reference>
Mitigating the inhibition of human Bile Salt Export Pump by drugs_ opportunities provided by physicochemical property modulation,  in-silico modeling and structural modification_SI

$$$$
CARBACHOL
  MOE2013           2D

 10  9  0  0  0  0  0  0  0  0999 V2000
    0.0000    0.0000    0.0000 C   0  0  0  0  0  0  0  0  0  0  0  0
    0.0000    1.5000    0.0000 N   0  3  0  0  0  0  0  0  0  0  0  0
    1.4770    1.2400    0.0000 C   0  0  0  0  0  0  0  0  0  0  0  0
    0.5130    2.9100    0.0000 C   0  0  0  0  0  0  0  0  0  0  0  0
   -1.2990    2.2500    0.0000 C   0  0  0  0  0  0  0  0  0  0  0  0
   -1.2990    3.7500    0.0000 C   0  0  0  0  0  0  0  0  0  0  0  0
   -2.5980    4.5000    0.0000 O   0  0  0  0  0  0  0  0  0  0  0  0
   -2.5980    6.0000    0.0000 C   0  0  0  0  0  0  0  0  0  0  0  0
   -3.8970    6.7500    0.0000 O   0  5  0  0  0  0  0  0  0  0  0  0
   -1.2990    6.7500    0.0000 N   0  0  0  0  0  0  0  0  0  0  0  0
  1  2  1  0  0  0  0
  2  3  1  0  0  0  0
  2  4  1  0  0  0  0
  2  5  1  0  0  0  0
  5  6  1  0  0  0  0
  6  7  1  0  0  0  0
  7  8  1  0  0  0  0
  8  9  1  0  0  0  0
  8 10  2  0  0  0  0
M  CHG  1   2   1
M  CHG  1   9  -1
M  END
>  <n>
274

>  <SMILES>
O(CC[N+](C)(C)C)C(=O)N

>  <IC50>
>1000

>  <Class>
0

>  <NAME>
CARBACHOL

>  <INCHI_KEY>
VPJXQGSRWJZDOB-UHFFFAOYSA-O

>  <Reference>
Mitigating the inhibition of human Bile Salt Export Pump by drugs_ opportunities provided by physicochemical property modulation,  in-silico modeling and structural modification_SI

$$$$
CARBAMAZEPINE
  MOE2013           2D

 18 20  0  0  0  0  0  0  0  0999 V2000
    2.5980    1.5000    0.0000 C   0  0  0  0  0  0  0  0  0  0  0  0
    2.5980    0.0000    0.0000 C   0  0  0  0  0  0  0  0  0  0  0  0
    1.2990   -0.7500    0.0000 C   0  0  0  0  0  0  0  0  0  0  0  0
    0.0000    0.0000    0.0000 C   0  0  0  0  0  0  0  0  0  0  0  0
    0.0000    1.5000    0.0000 C   0  0  0  0  0  0  0  0  0  0  0  0
    1.2990    2.2500    0.0000 C   0  0  0  0  0  0  0  0  0  0  0  0
   -1.1730    2.4350    0.0000 C   0  0  0  0  0  0  0  0  0  0  0  0
   -2.6350    2.1020    0.0000 C   0  0  0  0  0  0  0  0  0  0  0  0
   -3.2860    0.7500    0.0000 C   0  0  0  0  0  0  0  0  0  0  0  0
   -4.7820    0.8620    0.0000 C   0  0  0  0  0  0  0  0  0  0  0  0
   -5.6270   -0.3770    0.0000 C   0  0  0  0  0  0  0  0  0  0  0  0
   -4.9760   -1.7290    0.0000 C   0  0  0  0  0  0  0  0  0  0  0  0
   -3.4800   -1.8410    0.0000 C   0  0  0  0  0  0  0  0  0  0  0  0
   -2.6350   -0.6020    0.0000 C   0  0  0  0  0  0  0  0  0  0  0  0
   -1.1730   -0.9350    0.0000 N   0  0  0  0  0  0  0  0  0  0  0  0
   -0.8390   -2.3980    0.0000 C   0  0  0  0  0  0  0  0  0  0  0  0
    0.5940   -2.8400    0.0000 O   0  0  0  0  0  0  0  0  0  0  0  0
   -1.9380   -3.4180    0.0000 N   0  0  0  0  0  0  0  0  0  0  0  0
  1  2  1  0  0  0  0
  1  6  2  0  0  0  0
  2  3  2  0  0  0  0
  3  4  1  0  0  0  0
  4  5  2  0  0  0  0
  4 15  1  0  0  0  0
  5  6  1  0  0  0  0
  5  7  1  0  0  0  0
  7  8  2  0  0  0  0
  8  9  1  0  0  0  0
  9 10  1  0  0  0  0
  9 14  2  0  0  0  0
 10 11  2  0  0  0  0
 11 12  1  0  0  0  0
 12 13  2  0  0  0  0
 13 14  1  0  0  0  0
 14 15  1  0  0  0  0
 15 16  1  0  0  0  0
 16 17  2  0  0  0  0
 16 18  1  0  0  0  0
M  END
>  <n>
275

>  <SMILES>
O=C(N)N1c2c(C=Cc3c1cccc3)cccc2

>  <IC50>
>1000

>  <Class>
0

>  <NAME>
CARBAMAZEPINE

>  <INCHI_KEY>
FFGPTBGBLSHEPO-UHFFFAOYSA-N

>  <Reference>
Mitigating, Dawson

$$$$
CARBIMAZOLE
  MOE2013           2D

 12 12  0  0  0  0  0  0  0  0999 V2000
    5.1680   -0.5430    0.0000 C   0  0  0  0  0  0  0  0  0  0  0  0
    3.7970   -1.1530    0.0000 C   0  0  0  0  0  0  0  0  0  0  0  0
    2.5840   -0.2720    0.0000 O   0  0  0  0  0  0  0  0  0  0  0  0
    1.2140   -0.8820    0.0000 C   0  0  0  0  0  0  0  0  0  0  0  0
    1.0570   -2.3740    0.0000 O   0  0  0  0  0  0  0  0  0  0  0  0
    0.0000    0.0000    0.0000 N   0  0  0  0  0  0  0  0  0  0  0  0
    0.0000    1.5000    0.0000 C   0  0  0  0  0  0  0  0  0  0  0  0
   -1.4270    1.9640    0.0000 C   0  0  0  0  0  0  0  0  0  0  0  0
   -2.3080    0.7500    0.0000 N   0  0  0  0  0  0  0  0  0  0  0  0
   -1.4270   -0.4640    0.0000 C   0  0  0  0  0  0  0  0  0  0  0  0
   -1.8900   -1.8900    0.0000 S   0  0  0  0  0  0  0  0  0  0  0  0
   -3.8080    0.7500    0.0000 C   0  0  0  0  0  0  0  0  0  0  0  0
  1  2  1  0  0  0  0
  2  3  1  0  0  0  0
  3  4  1  0  0  0  0
  4  5  2  0  0  0  0
  4  6  1  0  0  0  0
  6  7  1  0  0  0  0
  6 10  1  0  0  0  0
  7  8  2  0  0  0  0
  8  9  1  0  0  0  0
  9 10  1  0  0  0  0
  9 12  1  0  0  0  0
 10 11  2  0  0  0  0
M  END
>  <n>
276

>  <SMILES>
S=C1N(C=CN1C)C(OCC)=O

>  <IC50>
>1000

>  <Class>
0

>  <NAME>
CARBIMAZOLE

>  <INCHI_KEY>
CFOYWRHIYXMDOT-UHFFFAOYSA-N

>  <Reference>
Mitigating the inhibition of human Bile Salt Export Pump by drugs_ opportunities provided by physicochemical property modulation,  in-silico modeling and structural modification_SI

$$$$
CARBINOXAMINE
  MOE2013           2D

 20 21  0  0  1  0  0  0  0  0999 V2000
    3.8970   -6.7500    0.0000 C   0  0  0  0  0  0  0  0  0  0  0  0
    3.8970   -5.2500    0.0000 N   0  0  0  0  0  0  0  0  0  0  0  0
    5.1960   -4.5000    0.0000 C   0  0  0  0  0  0  0  0  0  0  0  0
    2.5980   -4.5000    0.0000 C   0  0  0  0  0  0  0  0  0  0  0  0
    2.5980   -3.0000    0.0000 C   0  0  0  0  0  0  0  0  0  0  0  0
    1.2990   -2.2500    0.0000 O   0  0  0  0  0  0  0  0  0  0  0  0
    1.2990   -0.7500    0.0000 C   0  0  3  0  0  0  0  0  0  0  0  0
    0.0000    0.0000    0.0000 C   0  0  0  0  0  0  0  0  0  0  0  0
    0.0000    1.5000    0.0000 C   0  0  0  0  0  0  0  0  0  0  0  0
   -1.2990    2.2500    0.0000 C   0  0  0  0  0  0  0  0  0  0  0  0
   -2.5980    1.5000    0.0000 C   0  0  0  0  0  0  0  0  0  0  0  0
   -2.5980    0.0000    0.0000 C   0  0  0  0  0  0  0  0  0  0  0  0
   -1.2990   -0.7500    0.0000 C   0  0  0  0  0  0  0  0  0  0  0  0
   -3.8970    2.2500    0.0000 Cl  0  0  0  0  0  0  0  0  0  0  0  0
    2.5980    0.0000    0.0000 C   0  0  0  0  0  0  0  0  0  0  0  0
    3.8970   -0.7500    0.0000 C   0  0  0  0  0  0  0  0  0  0  0  0
    5.1960    0.0000    0.0000 C   0  0  0  0  0  0  0  0  0  0  0  0
    5.1960    1.5000    0.0000 C   0  0  0  0  0  0  0  0  0  0  0  0
    3.8970    2.2500    0.0000 C   0  0  0  0  0  0  0  0  0  0  0  0
    2.5980    1.5000    0.0000 N   0  0  0  0  0  0  0  0  0  0  0  0
  1  2  1  0  0  0  0
  2  3  1  0  0  0  0
  2  4  1  0  0  0  0
  4  5  1  0  0  0  0
  5  6  1  0  0  0  0
  6  7  1  0  0  0  0
  7  8  1  0  0  0  0
  7 15  1  0  0  0  0
  8  9  1  0  0  0  0
  8 13  2  0  0  0  0
  9 10  2  0  0  0  0
 10 11  1  0  0  0  0
 11 12  2  0  0  0  0
 11 14  1  0  0  0  0
 12 13  1  0  0  0  0
 15 16  1  0  0  0  0
 15 20  2  0  0  0  0
 16 17  2  0  0  0  0
 17 18  1  0  0  0  0
 18 19  2  0  0  0  0
 19 20  1  0  0  0  0
M  END
>  <n>
277

>  <SMILES>
Clc1ccc(cc1)C(OCCN(C)C)c1ncccc1

>  <IC50>
>1000

>  <Class>
0

>  <NAME>
CARBINOXAMINE

>  <INCHI_KEY>
OJFSXZCBGQGRNV-UHFFFAOYSA-N

>  <Reference>
Mitigating the inhibition of human Bile Salt Export Pump by drugs_ opportunities provided by physicochemical property modulation,  in-silico modeling and structural modification_SI

$$$$
CARTEOLOL
  MOE2013           2D

 21 22  0  0  1  0  0  0  0  0999 V2000
    9.0930   -0.7500    0.0000 C   0  0  0  0  0  0  0  0  0  0  0  0
    7.7940    0.0000    0.0000 C   0  0  0  0  0  0  0  0  0  0  0  0
    8.7580    1.1490    0.0000 C   0  0  0  0  0  0  0  0  0  0  0  0
    6.8300    1.1490    0.0000 C   0  0  0  0  0  0  0  0  0  0  0  0
    6.4950   -0.7500    0.0000 N   0  0  0  0  0  0  0  0  0  0  0  0
    5.1960    0.0000    0.0000 C   0  0  0  0  0  0  0  0  0  0  0  0
    3.8970   -0.7500    0.0000 C   0  0  3  0  0  0  0  0  0  0  0  0
    2.5980    0.0000    0.0000 C   0  0  0  0  0  0  0  0  0  0  0  0
    1.2990   -0.7500    0.0000 O   0  0  0  0  0  0  0  0  0  0  0  0
    0.0000    0.0000    0.0000 C   0  0  0  0  0  0  0  0  0  0  0  0
    0.0000    1.5000    0.0000 C   0  0  0  0  0  0  0  0  0  0  0  0
   -1.2990    2.2500    0.0000 C   0  0  0  0  0  0  0  0  0  0  0  0
   -2.5980    1.5000    0.0000 C   0  0  0  0  0  0  0  0  0  0  0  0
   -2.5980    0.0000    0.0000 C   0  0  0  0  0  0  0  0  0  0  0  0
   -1.2990   -0.7500    0.0000 C   0  0  0  0  0  0  0  0  0  0  0  0
   -1.2990   -2.2500    0.0000 C   0  0  0  0  0  0  0  0  0  0  0  0
   -2.5980   -3.0000    0.0000 C   0  0  0  0  0  0  0  0  0  0  0  0
   -3.8970   -2.2500    0.0000 C   0  0  0  0  0  0  0  0  0  0  0  0
   -5.1960   -3.0000    0.0000 O   0  0  0  0  0  0  0  0  0  0  0  0
   -3.8970   -0.7500    0.0000 N   0  0  0  0  0  0  0  0  0  0  0  0
    3.8970   -2.2500    0.0000 O   0  0  0  0  0  0  0  0  0  0  0  0
  1  2  1  0  0  0  0
  2  3  1  0  0  0  0
  2  4  1  0  0  0  0
  2  5  1  0  0  0  0
  5  6  1  0  0  0  0
  6  7  1  0  0  0  0
  7  8  1  0  0  0  0
  7 21  1  0  0  0  0
  8  9  1  0  0  0  0
  9 10  1  0  0  0  0
 10 11  1  0  0  0  0
 10 15  2  0  0  0  0
 11 12  2  0  0  0  0
 12 13  1  0  0  0  0
 13 14  2  0  0  0  0
 14 15  1  0  0  0  0
 14 20  1  0  0  0  0
 15 16  1  0  0  0  0
 16 17  1  0  0  0  0
 17 18  1  0  0  0  0
 18 19  2  0  0  0  0
 18 20  1  0  0  0  0
M  END
>  <n>
278

>  <SMILES>
O(CC(O)CNC(C)(C)C)c1c2CCC(=O)Nc2ccc1

>  <IC50>
>1000

>  <Class>
0

>  <NAME>
CARTEOLOL

>  <INCHI_KEY>
LWAFSWPYPHEXKX-UHFFFAOYSA-N

>  <Reference>
Mitigating the inhibition of human Bile Salt Export Pump by drugs_ opportunities provided by physicochemical property modulation,  in-silico modeling and structural modification_SI

$$$$
CHLOROPROCAINE
  MOE2013           2D

 18 18  0  0  0  0  0  0  0  0999 V2000
    9.0930   -0.7500    0.0000 C   0  0  0  0  0  0  0  0  0  0  0  0
    7.7940    0.0000    0.0000 C   0  0  0  0  0  0  0  0  0  0  0  0
    6.4950   -0.7500    0.0000 N   0  0  0  0  0  0  0  0  0  0  0  0
    6.4950   -2.2500    0.0000 C   0  0  0  0  0  0  0  0  0  0  0  0
    7.7940   -3.0000    0.0000 C   0  0  0  0  0  0  0  0  0  0  0  0
    5.1960    0.0000    0.0000 C   0  0  0  0  0  0  0  0  0  0  0  0
    3.8970   -0.7500    0.0000 C   0  0  0  0  0  0  0  0  0  0  0  0
    2.5980    0.0000    0.0000 O   0  0  0  0  0  0  0  0  0  0  0  0
    1.2990   -0.7500    0.0000 C   0  0  0  0  0  0  0  0  0  0  0  0
    1.2990   -2.2500    0.0000 O   0  0  0  0  0  0  0  0  0  0  0  0
    0.0000    0.0000    0.0000 C   0  0  0  0  0  0  0  0  0  0  0  0
    0.0000    1.5000    0.0000 C   0  0  0  0  0  0  0  0  0  0  0  0
   -1.2990    2.2500    0.0000 C   0  0  0  0  0  0  0  0  0  0  0  0
   -2.5980    1.5000    0.0000 C   0  0  0  0  0  0  0  0  0  0  0  0
   -2.5980    0.0000    0.0000 C   0  0  0  0  0  0  0  0  0  0  0  0
   -1.2990   -0.7500    0.0000 C   0  0  0  0  0  0  0  0  0  0  0  0
   -1.2990   -2.2500    0.0000 Cl  0  0  0  0  0  0  0  0  0  0  0  0
   -3.8970    2.2500    0.0000 N   0  0  0  0  0  0  0  0  0  0  0  0
  1  2  1  0  0  0  0
  2  3  1  0  0  0  0
  3  4  1  0  0  0  0
  3  6  1  0  0  0  0
  4  5  1  0  0  0  0
  6  7  1  0  0  0  0
  7  8  1  0  0  0  0
  8  9  1  0  0  0  0
  9 10  2  0  0  0  0
  9 11  1  0  0  0  0
 11 12  1  0  0  0  0
 11 16  2  0  0  0  0
 12 13  2  0  0  0  0
 13 14  1  0  0  0  0
 14 15  2  0  0  0  0
 14 18  1  0  0  0  0
 15 16  1  0  0  0  0
 16 17  1  0  0  0  0
M  END
>  <n>
280

>  <SMILES>
Clc1cc(N)ccc1C(OCCN(CC)CC)=O

>  <IC50>
>1000

>  <Class>
0

>  <NAME>
CHLOROPROCAINE

>  <INCHI_KEY>
VDANGULDQQJODZ-UHFFFAOYSA-N

>  <Reference>
Mitigating the inhibition of human Bile Salt Export Pump by drugs_ opportunities provided by physicochemical property modulation,  in-silico modeling and structural modification_SI

$$$$
CHLORPROMAZINE
  MOE2013           2D

 21 23  0  0  1  0  0  0  0  0999 V2000
    6.4950   -0.7500    0.0000 C   0  0  0  0  0  0  0  0  0  0  0  0
    5.1960    0.0000    0.0000 N   0  0  0  0  0  0  0  0  0  0  0  0
    5.1960    1.5000    0.0000 C   0  0  0  0  0  0  0  0  0  0  0  0
    3.8970   -0.7500    0.0000 C   0  0  0  0  0  0  0  0  0  0  0  0
    2.5980    0.0000    0.0000 C   0  0  0  0  0  0  0  0  0  0  0  0
    1.2990   -0.7500    0.0000 C   0  0  0  0  0  0  0  0  0  0  0  0
    0.0000    0.0000    0.0000 N   0  0  3  0  0  0  0  0  0  0  0  0
    0.0000    1.5000    0.0000 C   0  0  0  0  0  0  0  0  0  0  0  0
    1.2990    2.2500    0.0000 C   0  0  0  0  0  0  0  0  0  0  0  0
    1.2990    3.7500    0.0000 C   0  0  0  0  0  0  0  0  0  0  0  0
    0.0000    4.5000    0.0000 C   0  0  0  0  0  0  0  0  0  0  0  0
   -1.2990    3.7500    0.0000 C   0  0  0  0  0  0  0  0  0  0  0  0
   -1.2990    2.2500    0.0000 C   0  0  0  0  0  0  0  0  0  0  0  0
   -2.5980    1.5000    0.0000 S   0  0  0  0  0  0  0  0  0  0  0  0
   -2.5980    0.0000    0.0000 C   0  0  0  0  0  0  0  0  0  0  0  0
   -1.2990   -0.7500    0.0000 C   0  0  0  0  0  0  0  0  0  0  0  0
   -1.2990   -2.2500    0.0000 C   0  0  0  0  0  0  0  0  0  0  0  0
   -2.5980   -3.0000    0.0000 C   0  0  0  0  0  0  0  0  0  0  0  0
   -3.8970   -2.2500    0.0000 C   0  0  0  0  0  0  0  0  0  0  0  0
   -3.8970   -0.7500    0.0000 C   0  0  0  0  0  0  0  0  0  0  0  0
   -2.5980   -4.5000    0.0000 Cl  0  0  0  0  0  0  0  0  0  0  0  0
  1  2  1  0  0  0  0
  2  3  1  0  0  0  0
  2  4  1  0  0  0  0
  4  5  1  0  0  0  0
  5  6  1  0  0  0  0
  6  7  1  0  0  0  0
  7  8  1  0  0  0  0
  7 16  1  0  0  0  0
  8  9  1  0  0  0  0
  8 13  2  0  0  0  0
  9 10  2  0  0  0  0
 10 11  1  0  0  0  0
 11 12  2  0  0  0  0
 12 13  1  0  0  0  0
 13 14  1  0  0  0  0
 14 15  1  0  0  0  0
 15 16  1  0  0  0  0
 15 20  2  0  0  0  0
 16 17  2  0  0  0  0
 17 18  1  0  0  0  0
 18 19  2  0  0  0  0
 18 21  1  0  0  0  0
 19 20  1  0  0  0  0
M  END
>  <n>
281

>  <SMILES>
Clc1cc2N(c3c(Sc2cc1)cccc3)CCCN(C)C

>  <IC50>
90.97

>  <Class>
0

>  <NAME>
CHLORPROMAZINE

>  <INCHI_KEY>
ZPEIMTDSQAKGNT-UHFFFAOYSA-N

>  <Reference>
Mitigating, Dawson

$$$$
CHLORPROPAMIDE
  MOE2013           2D

 17 17  0  0  0  0  0  0  0  0999 V2000
    5.1960   -7.5000    0.0000 C   0  0  0  0  0  0  0  0  0  0  0  0
    3.8970   -6.7500    0.0000 C   0  0  0  0  0  0  0  0  0  0  0  0
    3.8970   -5.2500    0.0000 C   0  0  0  0  0  0  0  0  0  0  0  0
    2.5980   -4.5000    0.0000 N   0  0  0  0  0  0  0  0  0  0  0  0
    2.5980   -3.0000    0.0000 C   0  0  0  0  0  0  0  0  0  0  0  0
    3.8970   -2.2500    0.0000 O   0  0  0  0  0  0  0  0  0  0  0  0
    1.2990   -2.2500    0.0000 N   0  0  0  0  0  0  0  0  0  0  0  0
    1.2990   -0.7500    0.0000 S   0  0  0  0  0  0  0  0  0  0  0  0
    2.7760   -1.0100    0.0000 O   0  0  0  0  0  0  0  0  0  0  0  0
    1.8120    0.6600    0.0000 O   0  0  0  0  0  0  0  0  0  0  0  0
    0.0000    0.0000    0.0000 C   0  0  0  0  0  0  0  0  0  0  0  0
    0.0000    1.5000    0.0000 C   0  0  0  0  0  0  0  0  0  0  0  0
   -1.2990    2.2500    0.0000 C   0  0  0  0  0  0  0  0  0  0  0  0
   -2.5980    1.5000    0.0000 C   0  0  0  0  0  0  0  0  0  0  0  0
   -2.5980    0.0000    0.0000 C   0  0  0  0  0  0  0  0  0  0  0  0
   -1.2990   -0.7500    0.0000 C   0  0  0  0  0  0  0  0  0  0  0  0
   -3.8970    2.2500    0.0000 Cl  0  0  0  0  0  0  0  0  0  0  0  0
  1  2  1  0  0  0  0
  2  3  1  0  0  0  0
  3  4  1  0  0  0  0
  4  5  1  0  0  0  0
  5  6  2  0  0  0  0
  5  7  1  0  0  0  0
  7  8  1  0  0  0  0
  8  9  2  0  0  0  0
  8 10  2  0  0  0  0
  8 11  1  0  0  0  0
 11 12  1  0  0  0  0
 11 16  2  0  0  0  0
 12 13  2  0  0  0  0
 13 14  1  0  0  0  0
 14 15  2  0  0  0  0
 14 17  1  0  0  0  0
 15 16  1  0  0  0  0
M  END
>  <n>
282

>  <SMILES>
Clc1ccc(S(=O)(=O)NC(=O)NCCC)cc1

>  <IC50>
>1000

>  <Class>
0

>  <NAME>
CHLORPROPAMIDE

>  <INCHI_KEY>
RKWGIWYCVPQPMF-UHFFFAOYSA-N

>  <Reference>
Mitigating, Dawson

$$$$
CINCHOPHEN
  MOE2013           2D

 19 21  0  0  0  0  0  0  0  0999 V2000
    0.0000   -7.5000    0.0000 C   0  0  0  0  0  0  0  0  0  0  0  0
    1.2990   -6.7500    0.0000 C   0  0  0  0  0  0  0  0  0  0  0  0
    1.2990   -5.2500    0.0000 C   0  0  0  0  0  0  0  0  0  0  0  0
    0.0000   -4.5000    0.0000 C   0  0  0  0  0  0  0  0  0  0  0  0
   -1.2990   -5.2500    0.0000 C   0  0  0  0  0  0  0  0  0  0  0  0
   -1.2990   -6.7500    0.0000 C   0  0  0  0  0  0  0  0  0  0  0  0
    0.0000   -3.0000    0.0000 C   0  0  0  0  0  0  0  0  0  0  0  0
    1.2990   -2.2500    0.0000 C   0  0  0  0  0  0  0  0  0  0  0  0
    1.2990   -0.7500    0.0000 C   0  0  0  0  0  0  0  0  0  0  0  0
    0.0000    0.0000    0.0000 C   0  0  0  0  0  0  0  0  0  0  0  0
    0.0000    1.5000    0.0000 C   0  0  0  0  0  0  0  0  0  0  0  0
   -1.2990    2.2500    0.0000 C   0  0  0  0  0  0  0  0  0  0  0  0
   -2.5980    1.5000    0.0000 C   0  0  0  0  0  0  0  0  0  0  0  0
   -2.5980    0.0000    0.0000 C   0  0  0  0  0  0  0  0  0  0  0  0
   -1.2990   -0.7500    0.0000 C   0  0  0  0  0  0  0  0  0  0  0  0
   -1.2990   -2.2500    0.0000 N   0  0  0  0  0  0  0  0  0  0  0  0
    2.5980    0.0000    0.0000 C   0  0  0  0  0  0  0  0  0  0  0  0
    2.5980    1.5000    0.0000 O   0  0  0  0  0  0  0  0  0  0  0  0
    3.8970   -0.7500    0.0000 O   0  0  0  0  0  0  0  0  0  0  0  0
  1  2  1  0  0  0  0
  1  6  2  0  0  0  0
  2  3  2  0  0  0  0
  3  4  1  0  0  0  0
  4  5  2  0  0  0  0
  4  7  1  0  0  0  0
  5  6  1  0  0  0  0
  7  8  1  0  0  0  0
  7 16  2  0  0  0  0
  8  9  2  0  0  0  0
  9 10  1  0  0  0  0
  9 17  1  0  0  0  0
 10 11  1  0  0  0  0
 10 15  2  0  0  0  0
 11 12  2  0  0  0  0
 12 13  1  0  0  0  0
 13 14  2  0  0  0  0
 14 15  1  0  0  0  0
 15 16  1  0  0  0  0
 17 18  2  0  0  0  0
 17 19  1  0  0  0  0
M  END
>  <n>
285

>  <SMILES>
OC(=O)c1cc(nc2c1cccc2)-c1ccccc1

>  <IC50>
>813.5

>  <Class>
0

>  <NAME>
CINCHOPHEN

>  <INCHI_KEY>
YTRMTPPVNRALON-UHFFFAOYSA-N

>  <Reference>
Mitigating, Dawson

$$$$
Ciprofibrate
  MOE2013           2D

 18 19  0  0  1  0  0  0  0  0999 V2000
    0.0000   -2.5980    0.0000 C   0  0  0  0  0  0  0  0  0  0  0  0
    0.7500   -3.8970    0.0000 C   0  0  0  0  0  0  0  0  0  0  0  0
    2.2500   -3.8970    0.0000 C   0  0  0  0  0  0  0  0  0  0  0  0
    3.0000   -2.5980    0.0000 C   0  0  0  0  0  0  0  0  0  0  0  0
    2.2500   -1.2990    0.0000 C   0  0  0  0  0  0  0  0  0  0  0  0
    0.7500   -1.2990    0.0000 C   0  0  0  0  0  0  0  0  0  0  0  0
    0.0000    0.0000    0.0000 C   0  0  3  0  0  0  0  0  0  0  0  0
    0.0000    1.5000    0.0000 C   0  0  0  0  0  0  0  0  0  0  0  0
    1.4770    1.7600    0.0000 Cl  0  0  0  0  0  0  0  0  0  0  0  0
   -0.5130    2.9100    0.0000 Cl  0  0  0  0  0  0  0  0  0  0  0  0
   -1.2990    0.7500    0.0000 C   0  0  0  0  0  0  0  0  0  0  0  0
    3.0000   -5.1960    0.0000 O   0  0  0  0  0  0  0  0  0  0  0  0
    2.2500   -6.4950    0.0000 C   0  0  0  0  0  0  0  0  0  0  0  0
    3.0000   -7.7940    0.0000 C   0  0  0  0  0  0  0  0  0  0  0  0
    2.2500   -9.0930    0.0000 O   0  0  0  0  0  0  0  0  0  0  0  0
    4.5000   -7.7940    0.0000 O   0  0  0  0  0  0  0  0  0  0  0  0
    1.1010   -5.5310    0.0000 C   0  0  0  0  0  0  0  0  0  0  0  0
    1.1010   -7.4590    0.0000 C   0  0  0  0  0  0  0  0  0  0  0  0
  1  2  1  0  0  0  0
  1  6  2  0  0  0  0
  2  3  2  0  0  0  0
  3  4  1  0  0  0  0
  3 12  1  0  0  0  0
  4  5  2  0  0  0  0
  5  6  1  0  0  0  0
  6  7  1  0  0  0  0
  7  8  1  0  0  0  0
  7 11  1  0  0  0  0
  8  9  1  0  0  0  0
  8 10  1  0  0  0  0
  8 11  1  0  0  0  0
 12 13  1  0  0  0  0
 13 14  1  0  0  0  0
 13 17  1  0  0  0  0
 13 18  1  0  0  0  0
 14 15  1  0  0  0  0
 14 16  2  0  0  0  0
M  END
>  <n>
18

>  <IC50>
572.7

>  <Class>
0

>  <NAME>
CIPROFIBRATE

>  <Reference>
2012_Dawson_In Vitro Inhibition of the Bile Salt Export Pump Correlates with Risk of Cholestatic Drug-Induced Liver Injury in Humans

$$$$
CIPROFLOXACIN
  MOE2013           2D

 24 27  0  0  1  0  0  0  0  0999 V2000
    0.0000    0.0000    0.0000 C   0  0  0  0  0  0  0  0  0  0  0  0
    0.0000    1.5000    0.0000 C   0  0  0  0  0  0  0  0  0  0  0  0
   -1.2990    2.2500    0.0000 C   0  0  0  0  0  0  0  0  0  0  0  0
   -2.5980    1.5000    0.0000 C   0  0  0  0  0  0  0  0  0  0  0  0
   -2.5980    0.0000    0.0000 C   0  0  0  0  0  0  0  0  0  0  0  0
   -1.2990   -0.7500    0.0000 C   0  0  0  0  0  0  0  0  0  0  0  0
   -1.2990   -2.2500    0.0000 F   0  0  0  0  0  0  0  0  0  0  0  0
   -3.8970   -0.7500    0.0000 N   0  0  0  0  0  0  0  0  0  0  0  0
   -5.1960    0.0000    0.0000 C   0  0  0  0  0  0  0  0  0  0  0  0
   -6.4950   -0.7500    0.0000 C   0  0  0  0  0  0  0  0  0  0  0  0
   -6.4950   -2.2500    0.0000 N   0  0  0  0  0  0  0  0  0  0  0  0
   -5.1960   -3.0000    0.0000 C   0  0  0  0  0  0  0  0  0  0  0  0
   -3.8970   -2.2500    0.0000 C   0  0  0  0  0  0  0  0  0  0  0  0
   -1.2990    3.7500    0.0000 N   0  0  3  0  0  0  0  0  0  0  0  0
    0.0000    4.5000    0.0000 C   0  0  0  0  0  0  0  0  0  0  0  0
    1.2990    3.7500    0.0000 C   0  0  0  0  0  0  0  0  0  0  0  0
    1.2990    2.2500    0.0000 C   0  0  0  0  0  0  0  0  0  0  0  0
    2.5980    1.5000    0.0000 O   0  0  0  0  0  0  0  0  0  0  0  0
    2.5980    4.5000    0.0000 C   0  0  0  0  0  0  0  0  0  0  0  0
    2.5980    6.0000    0.0000 O   0  0  0  0  0  0  0  0  0  0  0  0
    3.8970    3.7500    0.0000 O   0  0  0  0  0  0  0  0  0  0  0  0
   -2.5980    4.5000    0.0000 C   0  0  0  0  0  0  0  0  0  0  0  0
   -3.3480    5.7990    0.0000 C   0  0  0  0  0  0  0  0  0  0  0  0
   -4.0980    4.5000    0.0000 C   0  0  0  0  0  0  0  0  0  0  0  0
  1  2  1  0  0  0  0
  1  6  2  0  0  0  0
  2  3  2  0  0  0  0
  2 17  1  0  0  0  0
  3  4  1  0  0  0  0
  3 14  1  0  0  0  0
  4  5  2  0  0  0  0
  5  6  1  0  0  0  0
  5  8  1  0  0  0  0
  6  7  1  0  0  0  0
  8  9  1  0  0  0  0
  8 13  1  0  0  0  0
  9 10  1  0  0  0  0
 10 11  1  0  0  0  0
 11 12  1  0  0  0  0
 12 13  1  0  0  0  0
 14 15  1  0  0  0  0
 14 22  1  0  0  0  0
 15 16  2  0  0  0  0
 16 17  1  0  0  0  0
 16 19  1  0  0  0  0
 17 18  2  0  0  0  0
 19 20  2  0  0  0  0
 19 21  1  0  0  0  0
 22 23  1  0  0  0  0
 22 24  1  0  0  0  0
 23 24  1  0  0  0  0
M  END
>  <n>
286

>  <SMILES>
Fc1cc2c(N(C=C(C(O)=O)C2=O)C2CC2)cc1N1CCNCC1

>  <IC50>
>1000

>  <Class>
0

>  <NAME>
CIPROFLOXACIN

>  <INCHI_KEY>
MYSWGUAQZAJSOK-UHFFFAOYSA-N

>  <Reference>
Mitigating the inhibition of human Bile Salt Export Pump by drugs_ opportunities provided by physicochemical property modulation,  in-silico modeling and structural modification_SI

$$$$
CLAVULANATE_POTASSIUM
  MOE2013           2D

 14 15  0  0  1  0  0  0  0  0999 V2000
    0.0000    0.0000    0.0000 C   0  0  0  0  0  0  0  0  0  0  0  0
    0.0000    1.5000    0.0000 C   0  0  3  0  0  0  0  0  0  0  0  0
   -1.5000    1.5000    0.0000 N   0  0  0  0  0  0  0  0  0  0  0  0
   -1.5000    0.0000    0.0000 C   0  0  0  0  0  0  0  0  0  0  0  0
   -2.5610   -1.0610    0.0000 O   0  0  0  0  0  0  0  0  0  0  0  0
   -1.9640    2.9270    0.0000 C   0  0  3  0  0  0  0  0  0  0  0  0
   -0.7500    3.8080    0.0000 C   0  0  0  0  0  0  0  0  0  0  0  0
   -0.7500    5.3080    0.0000 C   0  0  0  0  0  0  0  0  0  0  0  0
    0.5490    6.0580    0.0000 C   0  0  0  0  0  0  0  0  0  0  0  0
    0.5490    7.5580    0.0000 O   0  0  0  0  0  0  0  0  0  0  0  0
    0.4640    2.9270    0.0000 O   0  0  0  0  0  0  0  0  0  0  0  0
   -3.3900    3.3900    0.0000 C   0  0  0  0  0  0  0  0  0  0  0  0
   -4.5050    2.3860    0.0000 O   0  0  0  0  0  0  0  0  0  0  0  0
   -3.7020    4.8570    0.0000 O   0  0  0  0  0  0  0  0  0  0  0  0
  1  2  1  0  0  0  0
  1  4  1  0  0  0  0
  2  3  1  0  0  0  0
  2 11  1  0  0  0  0
  3  4  1  0  0  0  0
  3  6  1  0  0  0  0
  4  5  2  0  0  0  0
  6  7  1  0  0  0  0
  6 12  1  0  0  0  0
  7  8  2  0  0  0  0
  7 11  1  0  0  0  0
  8  9  1  0  0  0  0
  9 10  1  0  0  0  0
 12 13  2  0  0  0  0
 12 14  1  0  0  0  0
M  END
>  <n>
287

>  <SMILES>
O\1[C@H]2N([C@@H](C(O)=O)/C/1=C/CO)C(=O)C2

>  <IC50>
>1000

>  <Class>
0

>  <NAME>
CLAVULANATE POTASSIUM

>  <INCHI_KEY>
HZZVJAQRINQKSD-PBFISZAISA-N

>  <Reference>
Mitigating, Dawson

$$$$
Clobetasol_propionate
  MOE2013           2D

 32 35  0  0  1  0  0  0  0  0999 V2000
    1.4270   -0.4640    0.0000 C   0  0  3  0  0  0  0  0  0  0  0  0
    0.0000    0.0000    0.0000 C   0  0  3  0  0  0  0  0  0  0  0  0
    0.0000    1.5000    0.0000 C   0  0  3  0  0  0  0  0  0  0  0  0
   -1.2990    2.2500    0.0000 C   0  0  3  0  0  0  0  0  0  0  0  0
   -2.5980    1.5000    0.0000 C   0  0  3  0  0  0  0  0  0  0  0  0
   -3.8970    2.2500    0.0000 C   0  0  3  0  0  0  0  0  0  0  0  0
   -3.8970    3.7500    0.0000 C   0  0  0  0  0  0  0  0  0  0  0  0
   -5.1960    4.5000    0.0000 C   0  0  0  0  0  0  0  0  0  0  0  0
   -6.4950    3.7500    0.0000 C   0  0  0  0  0  0  0  0  0  0  0  0
   -7.7940    4.5000    0.0000 O   0  0  0  0  0  0  0  0  0  0  0  0
   -6.4950    2.2500    0.0000 C   0  0  0  0  0  0  0  0  0  0  0  0
   -5.1960    1.5000    0.0000 C   0  0  0  0  0  0  0  0  0  0  0  0
   -2.5980    4.5000    0.0000 C   0  0  0  0  0  0  0  0  0  0  0  0
   -1.2990    3.7500    0.0000 C   0  0  0  0  0  0  0  0  0  0  0  0
   -3.8970    0.7500    0.0000 C   0  0  0  0  0  0  0  0  0  0  0  0
   -3.8970    0.7500    0.0000 F   0  0  0  0  0  0  0  0  0  0  0  0
   -2.5980    0.0000    0.0000 C   0  0  3  0  0  0  0  0  0  0  0  0
   -1.2990   -0.7500    0.0000 C   0  0  0  0  0  0  0  0  0  0  0  0
   -3.8970   -0.7500    0.0000 O   0  0  0  0  0  0  0  0  0  0  0  0
    1.4270    1.9640    0.0000 C   0  0  0  0  0  0  0  0  0  0  0  0
    2.3080    0.7500    0.0000 C   0  0  3  0  0  0  0  0  0  0  0  0
    3.8080    0.7500    0.0000 C   0  0  0  0  0  0  0  0  0  0  0  0
    0.1570   -1.4920    0.0000 C   0  0  0  0  0  0  0  0  0  0  0  0
    0.8160   -1.8340    0.0000 O   0  0  0  0  0  0  0  0  0  0  0  0
    1.6980   -3.0470    0.0000 C   0  0  0  0  0  0  0  0  0  0  0  0
    3.1900   -2.8910    0.0000 C   0  0  0  0  0  0  0  0  0  0  0  0
    4.0720   -4.1040    0.0000 C   0  0  0  0  0  0  0  0  0  0  0  0
    1.0880   -4.4180    0.0000 O   0  0  0  0  0  0  0  0  0  0  0  0
    2.7260   -1.2140    0.0000 C   0  0  0  0  0  0  0  0  0  0  0  0
    4.0250   -0.4640    0.0000 C   0  0  0  0  0  0  0  0  0  0  0  0
    5.3240   -1.2140    0.0000 Cl  0  0  0  0  0  0  0  0  0  0  0  0
    2.7260   -2.7140    0.0000 O   0  0  0  0  0  0  0  0  0  0  0  0
  1  2  1  0  0  0  0
  1 21  1  0  0  0  0
  1 24  1  0  0  0  0
  1 29  1  0  0  0  0
  2  3  1  0  0  0  0
  2 18  1  0  0  0  0
  2 23  1  0  0  0  0
  3  4  1  0  0  0  0
  3 20  1  0  0  0  0
  4  5  1  0  0  0  0
  4 14  1  0  0  0  0
  5  6  1  0  0  0  0
  5 16  1  0  0  0  0
  5 17  1  0  0  0  0
  6  7  1  0  0  0  0
  6 12  1  0  0  0  0
  6 15  1  0  0  0  0
  7  8  2  0  0  0  0
  7 13  1  0  0  0  0
  8  9  1  0  0  0  0
  9 10  2  0  0  0  0
  9 11  1  0  0  0  0
 11 12  2  0  0  0  0
 13 14  1  0  0  0  0
 17 18  1  0  0  0  0
 17 19  1  0  0  0  0
 20 21  1  0  0  0  0
 21 22  1  0  0  0  0
 24 25  1  0  0  0  0
 25 26  1  0  0  0  0
 25 28  2  0  0  0  0
 26 27  1  0  0  0  0
 29 30  1  0  0  0  0
 29 32  2  0  0  0  0
 30 31  1  0  0  0  0
M  END
>  <n>
20

>  <IC50>
8.5

>  <Class>
1

>  <NAME>
CLOBETASOL_PROPIONATE

>  <Reference>
2012_Dawson_In Vitro Inhibition of the Bile Salt Export Pump Correlates with Risk of Cholestatic Drug-Induced Liver Injury in Humans

$$$$
CLOMIPHENE
  MOE2013           2D

 29 31  0  0  0  0  0  0  0  0999 V2000
    3.8970   -6.7500    0.0000 C   0  0  0  0  0  0  0  0  0  0  0  0
    3.8970   -5.2500    0.0000 C   0  0  0  0  0  0  0  0  0  0  0  0
    2.5980   -4.5000    0.0000 N   0  0  0  0  0  0  0  0  0  0  0  0
    1.2990   -5.2500    0.0000 C   0  0  0  0  0  0  0  0  0  0  0  0
    1.2990   -6.7500    0.0000 C   0  0  0  0  0  0  0  0  0  0  0  0
    2.5980   -3.0000    0.0000 C   0  0  0  0  0  0  0  0  0  0  0  0
    1.2990   -2.2500    0.0000 C   0  0  0  0  0  0  0  0  0  0  0  0
    1.2990   -0.7500    0.0000 O   0  0  0  0  0  0  0  0  0  0  0  0
    0.0000    0.0000    0.0000 C   0  0  0  0  0  0  0  0  0  0  0  0
    0.0000    1.5000    0.0000 C   0  0  0  0  0  0  0  0  0  0  0  0
   -1.2990    2.2500    0.0000 C   0  0  0  0  0  0  0  0  0  0  0  0
   -2.5980    1.5000    0.0000 C   0  0  0  0  0  0  0  0  0  0  0  0
   -2.5980    0.0000    0.0000 C   0  0  0  0  0  0  0  0  0  0  0  0
   -1.2990   -0.7500    0.0000 C   0  0  0  0  0  0  0  0  0  0  0  0
   -3.8970    2.2500    0.0000 C   0  0  0  0  0  0  0  0  0  0  0  0
   -3.8970    3.7500    0.0000 C   0  0  0  0  0  0  0  0  0  0  0  0
   -2.5980    4.5000    0.0000 C   0  0  0  0  0  0  0  0  0  0  0  0
   -2.5980    6.0000    0.0000 C   0  0  0  0  0  0  0  0  0  0  0  0
   -1.2990    6.7500    0.0000 C   0  0  0  0  0  0  0  0  0  0  0  0
    0.0000    6.0000    0.0000 C   0  0  0  0  0  0  0  0  0  0  0  0
    0.0000    4.5000    0.0000 C   0  0  0  0  0  0  0  0  0  0  0  0
   -1.2990    3.7500    0.0000 C   0  0  0  0  0  0  0  0  0  0  0  0
   -5.1960    4.5000    0.0000 Cl  0  0  0  0  0  0  0  0  0  0  0  0
   -5.1960    1.5000    0.0000 C   0  0  0  0  0  0  0  0  0  0  0  0
   -6.4950    2.2500    0.0000 C   0  0  0  0  0  0  0  0  0  0  0  0
   -7.7940    1.5000    0.0000 C   0  0  0  0  0  0  0  0  0  0  0  0
   -7.7940    0.0000    0.0000 C   0  0  0  0  0  0  0  0  0  0  0  0
   -6.4950   -0.7500    0.0000 C   0  0  0  0  0  0  0  0  0  0  0  0
   -5.1960    0.0000    0.0000 C   0  0  0  0  0  0  0  0  0  0  0  0
  1  2  1  0  0  0  0
  2  3  1  0  0  0  0
  3  4  1  0  0  0  0
  3  6  1  0  0  0  0
  4  5  1  0  0  0  0
  6  7  1  0  0  0  0
  7  8  1  0  0  0  0
  8  9  1  0  0  0  0
  9 10  1  0  0  0  0
  9 14  2  0  0  0  0
 10 11  2  0  0  0  0
 11 12  1  0  0  0  0
 12 13  2  0  0  0  0
 12 15  1  0  0  0  0
 13 14  1  0  0  0  0
 15 16  2  0  0  0  0
 15 24  1  0  0  0  0
 16 17  1  0  0  0  0
 16 23  1  0  0  0  0
 17 18  1  0  0  0  0
 17 22  2  0  0  0  0
 18 19  2  0  0  0  0
 19 20  1  0  0  0  0
 20 21  2  0  0  0  0
 21 22  1  0  0  0  0
 24 25  1  0  0  0  0
 24 29  2  0  0  0  0
 25 26  2  0  0  0  0
 26 27  1  0  0  0  0
 27 28  2  0  0  0  0
 28 29  1  0  0  0  0
M  END
>  <n>
288

>  <SMILES>
Cl\C(=C(\c1ccc(OCCN(CC)CC)cc1)/c1ccccc1)\c1ccccc1

>  <IC50>
<10

>  <Class>
1

>  <NAME>
CLOMIPHENE

>  <INCHI_KEY>
GKIRPKYJQBWNGO-OCEACIFDSA-N

>  <Reference>
Mitigating the inhibition of human Bile Salt Export Pump by drugs_ opportunities provided by physicochemical property modulation,  in-silico modeling and structural modification_SI

$$$$
CLOTRIMAZOLE
  MOE2013           2D

 25 28  0  0  0  0  0  0  0  0999 V2000
    5.3240    0.9490    0.0000 C   0  0  0  0  0  0  0  0  0  0  0  0
    4.1110    1.8300    0.0000 C   0  0  0  0  0  0  0  0  0  0  0  0
    2.7410    1.2200    0.0000 C   0  0  0  0  0  0  0  0  0  0  0  0
    2.5840   -0.2720    0.0000 C   0  0  0  0  0  0  0  0  0  0  0  0
    3.7970   -1.1530    0.0000 C   0  0  0  0  0  0  0  0  0  0  0  0
    5.1680   -0.5430    0.0000 C   0  0  0  0  0  0  0  0  0  0  0  0
    1.2140   -0.8820    0.0000 C   0  0  0  0  0  0  0  0  0  0  0  0
    0.1340   -1.9240    0.0000 C   0  0  0  0  0  0  0  0  0  0  0  0
   -1.3070   -1.5100    0.0000 C   0  0  0  0  0  0  0  0  0  0  0  0
   -2.3860   -2.5520    0.0000 C   0  0  0  0  0  0  0  0  0  0  0  0
   -2.0230   -4.0080    0.0000 C   0  0  0  0  0  0  0  0  0  0  0  0
   -0.5820   -4.4210    0.0000 C   0  0  0  0  0  0  0  0  0  0  0  0
    0.4970   -3.3790    0.0000 C   0  0  0  0  0  0  0  0  0  0  0  0
    2.0520   -2.1250    0.0000 C   0  0  0  0  0  0  0  0  0  0  0  0
    1.3950   -3.4730    0.0000 C   0  0  0  0  0  0  0  0  0  0  0  0
    2.2340   -4.7170    0.0000 C   0  0  0  0  0  0  0  0  0  0  0  0
    3.7300   -4.6120    0.0000 C   0  0  0  0  0  0  0  0  0  0  0  0
    4.3880   -3.2640    0.0000 C   0  0  0  0  0  0  0  0  0  0  0  0
    3.5490   -2.0210    0.0000 C   0  0  0  0  0  0  0  0  0  0  0  0
    4.2060   -0.6720    0.0000 Cl  0  0  0  0  0  0  0  0  0  0  0  0
    0.0000    0.0000    0.0000 N   0  0  0  0  0  0  0  0  0  0  0  0
    0.0000    1.5000    0.0000 C   0  0  0  0  0  0  0  0  0  0  0  0
   -1.4270    1.9640    0.0000 C   0  0  0  0  0  0  0  0  0  0  0  0
   -2.3080    0.7500    0.0000 N   0  0  0  0  0  0  0  0  0  0  0  0
   -1.4270   -0.4640    0.0000 C   0  0  0  0  0  0  0  0  0  0  0  0
  1  2  1  0  0  0  0
  1  6  2  0  0  0  0
  2  3  2  0  0  0  0
  3  4  1  0  0  0  0
  4  5  2  0  0  0  0
  4  7  1  0  0  0  0
  5  6  1  0  0  0  0
  7  8  1  0  0  0  0
  7 14  1  0  0  0  0
  7 21  1  0  0  0  0
  8  9  1  0  0  0  0
  8 13  2  0  0  0  0
  9 10  2  0  0  0  0
 10 11  1  0  0  0  0
 11 12  2  0  0  0  0
 12 13  1  0  0  0  0
 14 15  1  0  0  0  0
 14 19  2  0  0  0  0
 15 16  2  0  0  0  0
 16 17  1  0  0  0  0
 17 18  2  0  0  0  0
 18 19  1  0  0  0  0
 19 20  1  0  0  0  0
 21 22  1  0  0  0  0
 21 25  1  0  0  0  0
 22 23  2  0  0  0  0
 23 24  1  0  0  0  0
 24 25  2  0  0  0  0
M  END
>  <n>
289

>  <SMILES>
Clc1ccccc1C(n1ccnc1)(c1ccccc1)c1ccccc1

>  <IC50>
<10

>  <Class>
1

>  <NAME>
CLOTRIMAZOLE

>  <INCHI_KEY>
VNFPBHJOKIVQEB-UHFFFAOYSA-N

>  <Reference>
Mitigating the inhibition of human Bile Salt Export Pump by drugs_ opportunities provided by physicochemical property modulation,  in-silico modeling and structural modification_SI

$$$$
CLOXYQUIN
  MOE2013           2D

 12 13  0  0  0  0  0  0  0  0999 V2000
    1.2990   -2.2500    0.0000 C   0  0  0  0  0  0  0  0  0  0  0  0
    1.2990   -0.7500    0.0000 C   0  0  0  0  0  0  0  0  0  0  0  0
    0.0000    0.0000    0.0000 C   0  0  0  0  0  0  0  0  0  0  0  0
    0.0000    1.5000    0.0000 C   0  0  0  0  0  0  0  0  0  0  0  0
   -1.2990    2.2500    0.0000 C   0  0  0  0  0  0  0  0  0  0  0  0
   -2.5980    1.5000    0.0000 C   0  0  0  0  0  0  0  0  0  0  0  0
   -2.5980    0.0000    0.0000 C   0  0  0  0  0  0  0  0  0  0  0  0
   -1.2990   -0.7500    0.0000 C   0  0  0  0  0  0  0  0  0  0  0  0
   -1.2990   -2.2500    0.0000 N   0  0  0  0  0  0  0  0  0  0  0  0
    0.0000   -3.0000    0.0000 C   0  0  0  0  0  0  0  0  0  0  0  0
   -3.8970   -0.7500    0.0000 O   0  0  0  0  0  0  0  0  0  0  0  0
    1.2990    2.2500    0.0000 Cl  0  0  0  0  0  0  0  0  0  0  0  0
  1  2  1  0  0  0  0
  1 10  2  0  0  0  0
  2  3  2  0  0  0  0
  3  4  1  0  0  0  0
  3  8  1  0  0  0  0
  4  5  2  0  0  0  0
  4 12  1  0  0  0  0
  5  6  1  0  0  0  0
  6  7  2  0  0  0  0
  7  8  1  0  0  0  0
  7 11  1  0  0  0  0
  8  9  2  0  0  0  0
  9 10  1  0  0  0  0
M  END
>  <n>
291

>  <SMILES>
Clc1c2c(nccc2)c(O)cc1

>  <IC50>
356.7

>  <Class>
0

>  <NAME>
CLOXYQUIN

>  <INCHI_KEY>
CTQMJYWDVABFRZ-UHFFFAOYSA-N

>  <Reference>
Mitigating the inhibition of human Bile Salt Export Pump by drugs_ opportunities provided by physicochemical property modulation,  in-silico modeling and structural modification_SI

$$$$
CLOZAPINE
  MOE2013           2D

 23 26  0  0  0  0  0  0  0  0999 V2000
    5.4060   -2.6030    0.0000 C   0  0  0  0  0  0  0  0  0  0  0  0
    4.0540   -1.9520    0.0000 N   0  0  0  0  0  0  0  0  0  0  0  0
    3.9420   -0.4570    0.0000 C   0  0  0  0  0  0  0  0  0  0  0  0
    2.5910    0.1940    0.0000 C   0  0  0  0  0  0  0  0  0  0  0  0
    1.3520   -0.6510    0.0000 N   0  0  0  0  0  0  0  0  0  0  0  0
    1.4640   -2.1470    0.0000 C   0  0  0  0  0  0  0  0  0  0  0  0
    2.8150   -2.7980    0.0000 C   0  0  0  0  0  0  0  0  0  0  0  0
    0.0000    0.0000    0.0000 C   0  0  0  0  0  0  0  0  0  0  0  0
    0.0000    1.5000    0.0000 N   0  0  0  0  0  0  0  0  0  0  0  0
   -1.1730    2.4350    0.0000 C   0  0  0  0  0  0  0  0  0  0  0  0
   -0.7310    3.8690    0.0000 C   0  0  0  0  0  0  0  0  0  0  0  0
   -1.7510    4.9680    0.0000 C   0  0  0  0  0  0  0  0  0  0  0  0
   -3.2130    4.6340    0.0000 C   0  0  0  0  0  0  0  0  0  0  0  0
   -3.6550    3.2010    0.0000 C   0  0  0  0  0  0  0  0  0  0  0  0
   -2.6350    2.1020    0.0000 C   0  0  0  0  0  0  0  0  0  0  0  0
   -3.2860    0.7500    0.0000 N   0  0  0  0  0  0  0  0  0  0  0  0
   -2.6350   -0.6020    0.0000 C   0  0  0  0  0  0  0  0  0  0  0  0
   -1.1730   -0.9350    0.0000 C   0  0  0  0  0  0  0  0  0  0  0  0
   -0.7310   -2.3690    0.0000 C   0  0  0  0  0  0  0  0  0  0  0  0
   -1.7510   -3.4680    0.0000 C   0  0  0  0  0  0  0  0  0  0  0  0
   -3.2130   -3.1340    0.0000 C   0  0  0  0  0  0  0  0  0  0  0  0
   -3.6550   -1.7010    0.0000 C   0  0  0  0  0  0  0  0  0  0  0  0
   -1.3090    6.4020    0.0000 Cl  0  0  0  0  0  0  0  0  0  0  0  0
  1  2  1  0  0  0  0
  2  3  1  0  0  0  0
  2  7  1  0  0  0  0
  3  4  1  0  0  0  0
  4  5  1  0  0  0  0
  5  6  1  0  0  0  0
  5  8  1  0  0  0  0
  6  7  1  0  0  0  0
  8  9  2  0  0  0  0
  8 18  1  0  0  0  0
  9 10  1  0  0  0  0
 10 11  1  0  0  0  0
 10 15  2  0  0  0  0
 11 12  2  0  0  0  0
 12 13  1  0  0  0  0
 12 23  1  0  0  0  0
 13 14  2  0  0  0  0
 14 15  1  0  0  0  0
 15 16  1  0  0  0  0
 16 17  1  0  0  0  0
 17 18  1  0  0  0  0
 17 22  2  0  0  0  0
 18 19  2  0  0  0  0
 19 20  1  0  0  0  0
 20 21  2  0  0  0  0
 21 22  1  0  0  0  0
M  END
>  <n>
292

>  <SMILES>
Clc1cc2N=C(N3CCN(CC3)C)c3c(Nc2cc1)cccc3

>  <IC50>
75.14

>  <Class>
0

>  <NAME>
CLOZAPINE

>  <INCHI_KEY>
QZUDBNBUXVUHMW-UHFFFAOYSA-N

>  <Reference>
Mitigating, Dawson

$$$$
COLCHICINE
  MOE2013           2D

 29 31  0  0  1  0  0  0  0  0999 V2000
    3.9420   -0.4570    0.0000 C   0  0  0  0  0  0  0  0  0  0  0  0
    2.5910    0.1940    0.0000 C   0  0  0  0  0  0  0  0  0  0  0  0
    2.4790    1.6900    0.0000 O   0  0  0  0  0  0  0  0  0  0  0  0
    1.3520   -0.6510    0.0000 N   0  0  0  0  0  0  0  0  0  0  0  0
    0.0000    0.0000    0.0000 C   0  0  3  0  0  0  0  0  0  0  0  0
    0.0000    1.5000    0.0000 C   0  0  0  0  0  0  0  0  0  0  0  0
   -1.1730    2.4350    0.0000 C   0  0  0  0  0  0  0  0  0  0  0  0
   -2.6350    2.1020    0.0000 C   0  0  0  0  0  0  0  0  0  0  0  0
   -3.4800    3.3410    0.0000 C   0  0  0  0  0  0  0  0  0  0  0  0
   -4.9760    3.2290    0.0000 C   0  0  0  0  0  0  0  0  0  0  0  0
   -5.6270    1.8770    0.0000 C   0  0  0  0  0  0  0  0  0  0  0  0
   -4.7820    0.6380    0.0000 C   0  0  0  0  0  0  0  0  0  0  0  0
   -3.2860    0.7500    0.0000 C   0  0  0  0  0  0  0  0  0  0  0  0
   -2.6350   -0.6020    0.0000 C   0  0  0  0  0  0  0  0  0  0  0  0
   -1.1730   -0.9350    0.0000 C   0  0  0  0  0  0  0  0  0  0  0  0
   -0.5220   -2.2870    0.0000 C   0  0  0  0  0  0  0  0  0  0  0  0
   -1.1730   -3.6380    0.0000 C   0  0  0  0  0  0  0  0  0  0  0  0
   -0.2380   -4.8110    0.0000 O   0  0  0  0  0  0  0  0  0  0  0  0
   -2.6350   -3.9720    0.0000 C   0  0  0  0  0  0  0  0  0  0  0  0
   -3.8080   -3.0370    0.0000 C   0  0  0  0  0  0  0  0  0  0  0  0
   -3.8080   -1.5370    0.0000 C   0  0  0  0  0  0  0  0  0  0  0  0
   -2.9690   -5.4340    0.0000 O   0  0  0  0  0  0  0  0  0  0  0  0
   -1.8690   -6.4550    0.0000 C   0  0  0  0  0  0  0  0  0  0  0  0
   -5.4330   -0.7140    0.0000 O   0  0  0  0  0  0  0  0  0  0  0  0
   -6.9280   -0.8260    0.0000 C   0  0  0  0  0  0  0  0  0  0  0  0
   -7.1230    1.7650    0.0000 O   0  0  0  0  0  0  0  0  0  0  0  0
   -7.9680    3.0040    0.0000 C   0  0  0  0  0  0  0  0  0  0  0  0
   -5.8210    4.4680    0.0000 O   0  0  0  0  0  0  0  0  0  0  0  0
   -7.3170    4.3560    0.0000 C   0  0  0  0  0  0  0  0  0  0  0  0
  1  2  1  0  0  0  0
  2  3  2  0  0  0  0
  2  4  1  0  0  0  0
  4  5  1  0  0  0  0
  5  6  1  0  0  0  0
  5 15  1  0  0  0  0
  6  7  1  0  0  0  0
  7  8  1  0  0  0  0
  8  9  1  0  0  0  0
  8 13  2  0  0  0  0
  9 10  2  0  0  0  0
 10 11  1  0  0  0  0
 10 28  1  0  0  0  0
 11 12  2  0  0  0  0
 11 26  1  0  0  0  0
 12 13  1  0  0  0  0
 12 24  1  0  0  0  0
 13 14  1  0  0  0  0
 14 15  1  0  0  0  0
 14 21  2  0  0  0  0
 15 16  2  0  0  0  0
 16 17  1  0  0  0  0
 17 18  2  0  0  0  0
 17 19  1  0  0  0  0
 19 20  2  0  0  0  0
 19 22  1  0  0  0  0
 20 21  1  0  0  0  0
 22 23  1  0  0  0  0
 24 25  1  0  0  0  0
 26 27  1  0  0  0  0
 28 29  1  0  0  0  0
M  END
>  <n>
294

>  <SMILES>
O(C)C1=CC=C2c3c(cc(OC)c(OC)c3OC)CC[C@H](NC(=O)C)C2=CC1=O

>  <IC50>
298.7

>  <Class>
0

>  <NAME>
COLCHICINE

>  <INCHI_KEY>
IAKHMKGGTNLKSZ-INIZCTEOSA-N

>  <Reference>
Mitigating the inhibition of human Bile Salt Export Pump by drugs_ opportunities provided by physicochemical property modulation,  in-silico modeling and structural modification_SI

$$$$
CORTISONE
  MOE2013           2D

 26 29  0  0  1  0  0  0  0  0999 V2000
    0.0000    3.0000    0.0000 C   0  0  0  0  0  0  0  0  0  0  0  0
    1.2990    2.2500    0.0000 C   0  0  2  0  0  0  0  0  0  0  0  0
    1.2990    3.7500    0.0000 C   0  0  0  0  0  0  0  0  0  0  0  0
    2.5980    4.5000    0.0000 C   0  0  0  0  0  0  0  0  0  0  0  0
    3.8970    3.7500    0.0000 C   0  0  0  0  0  0  0  0  0  0  0  0
    5.1960    4.5000    0.0000 O   0  0  0  0  0  0  0  0  0  0  0  0
    3.8970    2.2500    0.0000 C   0  0  0  0  0  0  0  0  0  0  0  0
    2.5980    1.5000    0.0000 C   0  0  0  0  0  0  0  0  0  0  0  0
    2.5980    0.0000    0.0000 C   0  0  0  0  0  0  0  0  0  0  0  0
    1.2990   -0.7500    0.0000 C   0  0  0  0  0  0  0  0  0  0  0  0
    0.0000    0.0000    0.0000 C   0  0  3  0  0  0  0  0  0  0  0  0
    0.0000    1.5000    0.0000 C   0  0  3  0  0  0  0  0  0  0  0  0
   -1.2990    2.2500    0.0000 C   0  0  0  0  0  0  0  0  0  0  0  0
   -1.2990    3.7500    0.0000 O   0  0  0  0  0  0  0  0  0  0  0  0
   -2.5980    1.5000    0.0000 C   0  0  0  0  0  0  0  0  0  0  0  0
   -2.5980    0.0000    0.0000 C   0  0  1  0  0  0  0  0  0  0  0  0
   -1.2990   -0.7500    0.0000 C   0  0  3  0  0  0  0  0  0  0  0  0
   -1.6110   -2.2170    0.0000 C   0  0  0  0  0  0  0  0  0  0  0  0
   -3.1030   -2.3740    0.0000 C   0  0  0  0  0  0  0  0  0  0  0  0
   -3.7130   -1.0040    0.0000 C   0  0  2  0  0  0  0  0  0  0  0  0
   -4.5940    0.2100    0.0000 C   0  0  0  0  0  0  0  0  0  0  0  0
   -3.9840    1.5800    0.0000 O   0  0  0  0  0  0  0  0  0  0  0  0
   -6.0860    0.0530    0.0000 C   0  0  0  0  0  0  0  0  0  0  0  0
   -6.6960   -1.3170    0.0000 O   0  0  0  0  0  0  0  0  0  0  0  0
   -5.0120   -1.7540    0.0000 O   0  0  0  0  0  0  0  0  0  0  0  0
   -3.9680    0.6100    0.0000 C   0  0  0  0  0  0  0  0  0  0  0  0
  2  1  1  6  0  0  0
  2  3  1  0  0  0  0
  2  8  1  0  0  0  0
  2 12  1  0  0  0  0
  3  4  1  0  0  0  0
  4  5  1  0  0  0  0
  5  6  2  0  0  0  0
  5  7  1  0  0  0  0
  7  8  2  0  0  0  0
  8  9  1  0  0  0  0
  9 10  1  0  0  0  0
 10 11  1  0  0  0  0
 11 12  1  0  0  0  0
 11 17  1  0  0  0  0
 12 13  1  0  0  0  0
 13 14  2  0  0  0  0
 13 15  1  0  0  0  0
 15 16  1  0  0  0  0
 16 17  1  0  0  0  0
 16 20  1  0  0  0  0
 16 26  1  6  0  0  0
 17 18  1  0  0  0  0
 18 19  1  0  0  0  0
 19 20  1  0  0  0  0
 20 21  1  6  0  0  0
 20 25  1  1  0  0  0
 21 22  2  0  0  0  0
 21 23  1  0  0  0  0
 23 24  1  0  0  0  0
M  END
>  <n>
295

>  <SMILES>
O=C1CC[C@@]2([C@@H]3[C@H]([C@@H]4CC[C@](O)(C(=O)CO)[C@]4(CC3=O)C)CCC2=C1)C

>  <IC50>
108.1

>  <Class>
0

>  <NAME>
CORTISONE

>  <INCHI_KEY>
MFYSYFVPBJMHGN-ZPOLXVRWSA-N

>  <Reference>
Mitigating the inhibition of human Bile Salt Export Pump by drugs_ opportunities provided by physicochemical property modulation,  in-silico modeling and structural modification_SI

$$$$
COUMARIN
  MOE2013           2D

 11 12  0  0  0  0  0  0  0  0999 V2000
    0.0000    0.0000    0.0000 C   0  0  0  0  0  0  0  0  0  0  0  0
    0.0000    1.5000    0.0000 C   0  0  0  0  0  0  0  0  0  0  0  0
   -1.2990    2.2500    0.0000 C   0  0  0  0  0  0  0  0  0  0  0  0
   -2.5980    1.5000    0.0000 C   0  0  0  0  0  0  0  0  0  0  0  0
   -2.5980    0.0000    0.0000 C   0  0  0  0  0  0  0  0  0  0  0  0
   -1.2990   -0.7500    0.0000 C   0  0  0  0  0  0  0  0  0  0  0  0
   -3.8970   -0.7500    0.0000 C   0  0  0  0  0  0  0  0  0  0  0  0
   -5.1960    0.0000    0.0000 C   0  0  0  0  0  0  0  0  0  0  0  0
   -5.1960    1.5000    0.0000 C   0  0  0  0  0  0  0  0  0  0  0  0
   -6.4950    2.2500    0.0000 O   0  0  0  0  0  0  0  0  0  0  0  0
   -3.8970    2.2500    0.0000 O   0  0  0  0  0  0  0  0  0  0  0  0
  1  2  1  0  0  0  0
  1  6  2  0  0  0  0
  2  3  2  0  0  0  0
  3  4  1  0  0  0  0
  4  5  2  0  0  0  0
  4 11  1  0  0  0  0
  5  6  1  0  0  0  0
  5  7  1  0  0  0  0
  7  8  2  0  0  0  0
  8  9  1  0  0  0  0
  9 10  2  0  0  0  0
  9 11  1  0  0  0  0
M  END
>  <n>
296

>  <SMILES>
O1c2c(C=CC1=O)cccc2

>  <IC50>
>1000

>  <Class>
0

>  <NAME>
COUMARIN

>  <INCHI_KEY>
ZYGHJZDHTFUPRJ-UHFFFAOYSA-N

>  <Reference>
Mitigating the inhibition of human Bile Salt Export Pump by drugs_ opportunities provided by physicochemical property modulation,  in-silico modeling and structural modification_SI

$$$$
CROMOLYN
  MOE2013           2D

 34 37  0  0  0  0  0  0  0  0999 V2000
   10.3920    0.0000    0.0000 C   0  0  0  0  0  0  0  0  0  0  0  0
   10.3920    1.5000    0.0000 C   0  0  0  0  0  0  0  0  0  0  0  0
    9.0930    2.2500    0.0000 C   0  0  0  0  0  0  0  0  0  0  0  0
    7.7940    1.5000    0.0000 C   0  0  0  0  0  0  0  0  0  0  0  0
    7.7940    0.0000    0.0000 C   0  0  0  0  0  0  0  0  0  0  0  0
    9.0930   -0.7500    0.0000 C   0  0  0  0  0  0  0  0  0  0  0  0
    6.4950   -0.7500    0.0000 O   0  0  0  0  0  0  0  0  0  0  0  0
    5.1960    0.0000    0.0000 C   0  0  0  0  0  0  0  0  0  0  0  0
    3.8970   -0.7500    0.0000 C   0  0  0  0  0  0  0  0  0  0  0  0
    2.5980    0.0000    0.0000 C   0  0  0  0  0  0  0  0  0  0  0  0
    1.2990   -0.7500    0.0000 O   0  0  0  0  0  0  0  0  0  0  0  0
    0.0000    0.0000    0.0000 C   0  0  0  0  0  0  0  0  0  0  0  0
    0.0000    1.5000    0.0000 C   0  0  0  0  0  0  0  0  0  0  0  0
   -1.2990    2.2500    0.0000 C   0  0  0  0  0  0  0  0  0  0  0  0
   -2.5980    1.5000    0.0000 C   0  0  0  0  0  0  0  0  0  0  0  0
   -2.5980    0.0000    0.0000 C   0  0  0  0  0  0  0  0  0  0  0  0
   -1.2990   -0.7500    0.0000 C   0  0  0  0  0  0  0  0  0  0  0  0
   -1.2990   -2.2500    0.0000 C   0  0  0  0  0  0  0  0  0  0  0  0
    0.0000   -3.0000    0.0000 O   0  0  0  0  0  0  0  0  0  0  0  0
   -2.5980   -3.0000    0.0000 C   0  0  0  0  0  0  0  0  0  0  0  0
   -3.8970   -2.2500    0.0000 C   0  0  0  0  0  0  0  0  0  0  0  0
   -3.8970   -0.7500    0.0000 O   0  0  0  0  0  0  0  0  0  0  0  0
   -5.1960   -3.0000    0.0000 C   0  0  0  0  0  0  0  0  0  0  0  0
   -6.4950   -2.2500    0.0000 O   0  0  0  0  0  0  0  0  0  0  0  0
   -5.1960   -4.5000    0.0000 O   0  0  0  0  0  0  0  0  0  0  0  0
    3.8970   -2.2500    0.0000 O   0  0  0  0  0  0  0  0  0  0  0  0
    6.4950    2.2500    0.0000 C   0  0  0  0  0  0  0  0  0  0  0  0
    5.1960    1.5000    0.0000 O   0  0  0  0  0  0  0  0  0  0  0  0
    6.4950    3.7500    0.0000 C   0  0  0  0  0  0  0  0  0  0  0  0
    7.7940    4.5000    0.0000 C   0  0  0  0  0  0  0  0  0  0  0  0
    9.0930    3.7500    0.0000 O   0  0  0  0  0  0  0  0  0  0  0  0
    7.7940    6.0000    0.0000 C   0  0  0  0  0  0  0  0  0  0  0  0
    9.0930    6.7500    0.0000 O   0  0  0  0  0  0  0  0  0  0  0  0
    6.4950    6.7500    0.0000 O   0  0  0  0  0  0  0  0  0  0  0  0
  1  2  1  0  0  0  0
  1  6  2  0  0  0  0
  2  3  2  0  0  0  0
  3  4  1  0  0  0  0
  3 31  1  0  0  0  0
  4  5  2  0  0  0  0
  4 27  1  0  0  0  0
  5  6  1  0  0  0  0
  5  7  1  0  0  0  0
  7  8  1  0  0  0  0
  8  9  1  0  0  0  0
  9 10  1  0  0  0  0
  9 26  1  0  0  0  0
 10 11  1  0  0  0  0
 11 12  1  0  0  0  0
 12 13  1  0  0  0  0
 12 17  2  0  0  0  0
 13 14  2  0  0  0  0
 14 15  1  0  0  0  0
 15 16  2  0  0  0  0
 16 17  1  0  0  0  0
 16 22  1  0  0  0  0
 17 18  1  0  0  0  0
 18 19  2  0  0  0  0
 18 20  1  0  0  0  0
 20 21  2  0  0  0  0
 21 22  1  0  0  0  0
 21 23  1  0  0  0  0
 23 24  2  0  0  0  0
 23 25  1  0  0  0  0
 27 28  2  0  0  0  0
 27 29  1  0  0  0  0
 29 30  2  0  0  0  0
 30 31  1  0  0  0  0
 30 32  1  0  0  0  0
 32 33  2  0  0  0  0
 32 34  1  0  0  0  0
M  END
>  <n>
297

>  <SMILES>
O1c2c(C(=O)C=C1C(O)=O)c(OCC(O)COc1c3c(OC(=CC3=O)C(O)=O)ccc1)ccc2

>  <IC50>
>1000

>  <Class>
0

>  <NAME>
CROMOLYN

>  <INCHI_KEY>
IMZMKUWMOSJXDT-UHFFFAOYSA-N

>  <Reference>
Mitigating, Dawson

$$$$
CYCLOBENZAPRINE
  MOE2013           2D

 21 23  0  0  0  0  0  0  0  0999 V2000
    6.5330   -0.2620    0.0000 C   0  0  0  0  0  0  0  0  0  0  0  0
    5.1820    0.3880    0.0000 N   0  0  0  0  0  0  0  0  0  0  0  0
    5.0700    1.8840    0.0000 C   0  0  0  0  0  0  0  0  0  0  0  0
    3.9420   -0.4570    0.0000 C   0  0  0  0  0  0  0  0  0  0  0  0
    2.5910    0.1940    0.0000 C   0  0  0  0  0  0  0  0  0  0  0  0
    1.3520   -0.6510    0.0000 C   0  0  0  0  0  0  0  0  0  0  0  0
    0.0000    0.0000    0.0000 C   0  0  0  0  0  0  0  0  0  0  0  0
    0.0000    1.5000    0.0000 C   0  0  0  0  0  0  0  0  0  0  0  0
    1.3960    2.0480    0.0000 C   0  0  0  0  0  0  0  0  0  0  0  0
    1.6200    3.5310    0.0000 C   0  0  0  0  0  0  0  0  0  0  0  0
    0.4470    4.4660    0.0000 C   0  0  0  0  0  0  0  0  0  0  0  0
   -0.9490    3.9180    0.0000 C   0  0  0  0  0  0  0  0  0  0  0  0
   -1.1730    2.4350    0.0000 C   0  0  0  0  0  0  0  0  0  0  0  0
   -2.6350    2.1020    0.0000 C   0  0  0  0  0  0  0  0  0  0  0  0
   -3.2860    0.7500    0.0000 C   0  0  0  0  0  0  0  0  0  0  0  0
   -2.6350   -0.6020    0.0000 C   0  0  0  0  0  0  0  0  0  0  0  0
   -1.1730   -0.9350    0.0000 C   0  0  0  0  0  0  0  0  0  0  0  0
   -0.7310   -2.3690    0.0000 C   0  0  0  0  0  0  0  0  0  0  0  0
   -1.7510   -3.4680    0.0000 C   0  0  0  0  0  0  0  0  0  0  0  0
   -3.2130   -3.1340    0.0000 C   0  0  0  0  0  0  0  0  0  0  0  0
   -3.6550   -1.7010    0.0000 C   0  0  0  0  0  0  0  0  0  0  0  0
  1  2  1  0  0  0  0
  2  3  1  0  0  0  0
  2  4  1  0  0  0  0
  4  5  1  0  0  0  0
  5  6  1  0  0  0  0
  6  7  2  0  0  0  0
  7  8  1  0  0  0  0
  7 17  1  0  0  0  0
  8  9  1  0  0  0  0
  8 13  2  0  0  0  0
  9 10  2  0  0  0  0
 10 11  1  0  0  0  0
 11 12  2  0  0  0  0
 12 13  1  0  0  0  0
 13 14  1  0  0  0  0
 14 15  2  0  0  0  0
 15 16  1  0  0  0  0
 16 17  1  0  0  0  0
 16 21  2  0  0  0  0
 17 18  2  0  0  0  0
 18 19  1  0  0  0  0
 19 20  2  0  0  0  0
 20 21  1  0  0  0  0
M  END
>  <n>
299

>  <SMILES>
N(CCC=C1c2c(C=Cc3c1cccc3)cccc2)(C)C

>  <IC50>
107.4

>  <Class>
0

>  <NAME>
CYCLOBENZAPRINE

>  <INCHI_KEY>
JURKNVYFZMSNLP-UHFFFAOYSA-N

>  <Reference>
Mitigating the inhibition of human Bile Salt Export Pump by drugs_ opportunities provided by physicochemical property modulation,  in-silico modeling and structural modification_SI

$$$$
CYCLOSERINE
  MOE2013           2D

  7  7  0  0  1  0  0  0  0  0999 V2000
    0.0000    0.0000    0.0000 C   0  0  0  0  0  0  0  0  0  0  0  0
    0.0000    1.5000    0.0000 C   0  0  3  0  0  0  0  0  0  0  0  0
   -1.4270    1.9640    0.0000 C   0  0  0  0  0  0  0  0  0  0  0  0
   -1.8900    3.3900    0.0000 O   0  0  0  0  0  0  0  0  0  0  0  0
   -2.3080    0.7500    0.0000 N   0  0  0  0  0  0  0  0  0  0  0  0
   -1.4270   -0.4640    0.0000 O   0  0  0  0  0  0  0  0  0  0  0  0
    1.2140    2.3820    0.0000 N   0  0  0  0  0  0  0  0  0  0  0  0
  1  2  1  0  0  0  0
  1  6  1  0  0  0  0
  2  3  1  0  0  0  0
  2  7  1  0  0  0  0
  3  4  2  0  0  0  0
  3  5  1  0  0  0  0
  5  6  1  0  0  0  0
M  END
>  <n>
300

>  <SMILES>
O1NC(=O)[C@H](N)C1

>  <IC50>
>1000

>  <Class>
0

>  <NAME>
CYCLOSERINE

>  <INCHI_KEY>
DYDCUQKUCUHJBH-UWTATZPHSA-N

>  <Reference>
Mitigating, Dawson

$$$$
CYCLOSPORIN_A
  MOE2013           2D

 85 85  0  0  1  0  0  0  0  0999 V2000
    2.3630    1.0790    0.0000 C   0  0  0  0  0  0  0  0  0  0  0  0
    1.4930   -0.1430    0.0000 C   0  0  0  0  0  0  0  0  0  0  0  0
    0.0000    0.0000    0.0000 C   0  0  3  0  0  0  0  0  0  0  0  0
    0.0000    1.5000    0.0000 C   0  0  0  0  0  0  0  0  0  0  0  0
    1.4930    1.6430    0.0000 O   0  0  0  0  0  0  0  0  0  0  0  0
   -0.2840    2.9730    0.0000 N   0  0  0  0  0  0  0  0  0  0  0  0
   -0.8410    4.3650    0.0000 C   0  0  0  0  0  0  0  0  0  0  0  0
   -1.6520    5.6270    0.0000 C   0  0  0  0  0  0  0  0  0  0  0  0
   -0.4730    6.5550    0.0000 O   0  0  0  0  0  0  0  0  0  0  0  0
   -2.6880    6.7130    0.0000 N   0  0  0  0  0  0  0  0  0  0  0  0
   -3.9090    7.5830    0.0000 C   0  0  3  0  0  0  0  0  0  0  0  0
   -5.2740    8.2060    0.0000 C   0  0  0  0  0  0  0  0  0  0  0  0
   -4.7830    9.6240    0.0000 O   0  0  0  0  0  0  0  0  0  0  0  0
   -6.7320    8.5600    0.0000 N   0  0  0  0  0  0  0  0  0  0  0  0
   -8.2300    8.6310    0.0000 C   0  0  3  0  0  0  0  0  0  0  0  0
   -9.7140    8.4180    0.0000 C   0  0  0  0  0  0  0  0  0  0  0  0
  -10.0680    9.8750    0.0000 O   0  0  0  0  0  0  0  0  0  0  0  0
  -11.1320    7.9270    0.0000 N   0  0  0  0  0  0  0  0  0  0  0  0
  -12.4310    7.1770    0.0000 C   0  0  3  0  0  0  0  0  0  0  0  0
  -13.5650    6.1950    0.0000 C   0  0  0  0  0  0  0  0  0  0  0  0
  -14.6500    7.2300    0.0000 O   0  0  0  0  0  0  0  0  0  0  0  0
  -14.4920    5.0160    0.0000 N   0  0  0  0  0  0  0  0  0  0  0  0
  -15.1790    3.6820    0.0000 C   0  0  3  0  0  0  0  0  0  0  0  0
  -15.6020    2.2430    0.0000 C   0  0  0  0  0  0  0  0  0  0  0  0
  -17.0750    2.5270    0.0000 O   0  0  0  0  0  0  0  0  0  0  0  0
  -15.7440    0.7500    0.0000 N   0  0  0  0  0  0  0  0  0  0  0  0
  -15.6020   -0.7430    0.0000 C   0  0  3  0  0  0  0  0  0  0  0  0
  -15.1790   -2.1820    0.0000 C   0  0  0  0  0  0  0  0  0  0  0  0
  -16.5720   -2.7400    0.0000 O   0  0  0  0  0  0  0  0  0  0  0  0
  -14.4920   -3.5160    0.0000 N   0  0  0  0  0  0  0  0  0  0  0  0
  -13.5650   -4.6950    0.0000 C   0  0  3  0  0  0  0  0  0  0  0  0
  -12.4310   -5.6770    0.0000 C   0  0  0  0  0  0  0  0  0  0  0  0
  -13.3010   -6.8990    0.0000 O   0  0  0  0  0  0  0  0  0  0  0  0
  -11.1320   -6.4270    0.0000 N   0  0  0  0  0  0  0  0  0  0  0  0
   -9.7140   -6.9180    0.0000 C   0  0  3  0  0  0  0  0  0  0  0  0
   -8.2300   -7.1310    0.0000 C   0  0  0  0  0  0  0  0  0  0  0  0
   -8.3010   -8.6290    0.0000 O   0  0  0  0  0  0  0  0  0  0  0  0
   -6.7320   -7.0600    0.0000 N   0  0  0  0  0  0  0  0  0  0  0  0
   -5.2740   -6.7060    0.0000 C   0  0  3  0  0  0  0  0  0  0  0  0
   -3.9090   -6.0830    0.0000 C   0  0  0  0  0  0  0  0  0  0  0  0
   -3.1590   -7.3820    0.0000 O   0  0  0  0  0  0  0  0  0  0  0  0
   -2.6880   -5.2130    0.0000 N   0  0  0  0  0  0  0  0  0  0  0  0
   -1.6520   -4.1270    0.0000 C   0  0  3  0  0  0  0  0  0  0  0  0
   -0.8410   -2.8650    0.0000 C   0  0  0  0  0  0  0  0  0  0  0  0
    0.4920   -3.5530    0.0000 O   0  0  0  0  0  0  0  0  0  0  0  0
   -0.2840   -1.4730    0.0000 N   0  0  0  0  0  0  0  0  0  0  0  0
   -0.4730   -5.0550    0.0000 C   0  0  3  0  0  0  0  0  0  0  0  0
    0.9190   -4.4970    0.0000 C   0  0  3  0  0  0  0  0  0  0  0  0
    1.1330   -3.0120    0.0000 C   0  0  0  0  0  0  0  0  0  0  0  0
    2.0980   -5.4240    0.0000 C   0  0  0  0  0  0  0  0  0  0  0  0
    3.4910   -4.8670    0.0000 C   0  0  0  0  0  0  0  0  0  0  0  0
    4.6700   -5.7940    0.0000 C   0  0  0  0  0  0  0  0  0  0  0  0
    6.0630   -5.2370    0.0000 C   0  0  0  0  0  0  0  0  0  0  0  0
   -0.6870   -6.5390    0.0000 O   0  0  0  0  0  0  0  0  0  0  0  0
   -1.7050   -6.3470    0.0000 C   0  0  0  0  0  0  0  0  0  0  0  0
   -4.7830   -8.1240    0.0000 C   0  0  0  0  0  0  0  0  0  0  0  0
   -5.7660   -9.2570    0.0000 C   0  0  0  0  0  0  0  0  0  0  0  0
   -3.3100   -8.4080    0.0000 C   0  0  0  0  0  0  0  0  0  0  0  0
   -6.5180   -8.5440    0.0000 C   0  0  0  0  0  0  0  0  0  0  0  0
  -10.0680   -8.3750    0.0000 C   0  0  0  0  0  0  0  0  0  0  0  0
  -11.5070   -8.7980    0.0000 C   0  0  0  0  0  0  0  0  0  0  0  0
  -11.8610  -10.2560    0.0000 C   0  0  0  0  0  0  0  0  0  0  0  0
  -12.5930   -7.7630    0.0000 C   0  0  0  0  0  0  0  0  0  0  0  0
  -11.7550   -7.7920    0.0000 C   0  0  0  0  0  0  0  0  0  0  0  0
  -14.6500   -5.7300    0.0000 C   0  0  0  0  0  0  0  0  0  0  0  0
  -16.0900   -5.3070    0.0000 C   0  0  0  0  0  0  0  0  0  0  0  0
  -17.1750   -6.3420    0.0000 C   0  0  0  0  0  0  0  0  0  0  0  0
  -16.4430   -3.8500    0.0000 C   0  0  0  0  0  0  0  0  0  0  0  0
  -15.7540   -4.3270    0.0000 C   0  0  0  0  0  0  0  0  0  0  0  0
  -17.0750   -1.0270    0.0000 C   0  0  0  0  0  0  0  0  0  0  0  0
  -16.5720    4.2400    0.0000 C   0  0  0  0  0  0  0  0  0  0  0  0
  -13.3010    8.3990    0.0000 C   0  0  0  0  0  0  0  0  0  0  0  0
  -12.6780    9.7630    0.0000 C   0  0  0  0  0  0  0  0  0  0  0  0
  -13.5480   10.9850    0.0000 C   0  0  0  0  0  0  0  0  0  0  0  0
  -11.1850    9.9060    0.0000 C   0  0  0  0  0  0  0  0  0  0  0  0
  -11.7550    9.2920    0.0000 C   0  0  0  0  0  0  0  0  0  0  0  0
   -8.3010   10.1290    0.0000 C   0  0  0  0  0  0  0  0  0  0  0  0
   -9.6340   10.8170    0.0000 C   0  0  0  0  0  0  0  0  0  0  0  0
   -7.0390   10.9400    0.0000 C   0  0  0  0  0  0  0  0  0  0  0  0
   -3.1590    8.8820    0.0000 C   0  0  0  0  0  0  0  0  0  0  0  0
   -3.9090   10.1810    0.0000 C   0  0  0  0  0  0  0  0  0  0  0  0
   -3.1590   11.4800    0.0000 C   0  0  0  0  0  0  0  0  0  0  0  0
   -5.4090   10.1810    0.0000 C   0  0  0  0  0  0  0  0  0  0  0  0
   -1.7050    7.8470    0.0000 C   0  0  0  0  0  0  0  0  0  0  0  0
    1.1550    3.3960    0.0000 C   0  0  0  0  0  0  0  0  0  0  0  0
  1  2  1  0  0  0  0
  2  3  1  0  0  0  0
  3  4  1  0  0  0  0
  3 46  1  0  0  0  0
  4  5  2  0  0  0  0
  4  6  1  0  0  0  0
  6  7  1  0  0  0  0
  6 85  1  0  0  0  0
  7  8  1  0  0  0  0
  8  9  2  0  0  0  0
  8 10  1  0  0  0  0
 10 11  1  0  0  0  0
 10 84  1  0  0  0  0
 11 12  1  0  0  0  0
 11 80  1  0  0  0  0
 12 13  2  0  0  0  0
 12 14  1  0  0  0  0
 14 15  1  0  0  0  0
 15 16  1  0  0  0  0
 15 77  1  0  0  0  0
 16 17  2  0  0  0  0
 16 18  1  0  0  0  0
 18 19  1  0  0  0  0
 18 76  1  0  0  0  0
 19 20  1  0  0  0  0
 19 72  1  0  0  0  0
 20 21  2  0  0  0  0
 20 22  1  0  0  0  0
 22 23  1  0  0  0  0
 23 24  1  0  0  0  0
 23 71  1  0  0  0  0
 24 25  2  0  0  0  0
 24 26  1  0  0  0  0
 26 27  1  0  0  0  0
 27 28  1  0  0  0  0
 27 70  1  0  0  0  0
 28 29  2  0  0  0  0
 28 30  1  0  0  0  0
 30 31  1  0  0  0  0
 30 69  1  0  0  0  0
 31 32  1  0  0  0  0
 31 65  1  0  0  0  0
 32 33  2  0  0  0  0
 32 34  1  0  0  0  0
 34 35  1  0  0  0  0
 34 64  1  0  0  0  0
 35 36  1  0  0  0  0
 35 60  1  0  0  0  0
 36 37  2  0  0  0  0
 36 38  1  0  0  0  0
 38 39  1  0  0  0  0
 38 59  1  0  0  0  0
 39 40  1  0  0  0  0
 39 56  1  0  0  0  0
 40 41  2  0  0  0  0
 40 42  1  0  0  0  0
 42 43  1  0  0  0  0
 42 55  1  0  0  0  0
 43 44  1  0  0  0  0
 43 47  1  0  0  0  0
 44 45  2  0  0  0  0
 44 46  1  0  0  0  0
 47 48  1  0  0  0  0
 47 54  1  0  0  0  0
 48 49  1  0  0  0  0
 48 50  1  0  0  0  0
 50 51  1  0  0  0  0
 51 52  2  0  0  0  0
 52 53  1  0  0  0  0
 56 57  1  0  0  0  0
 56 58  1  0  0  0  0
 60 61  1  0  0  0  0
 61 62  1  0  0  0  0
 61 63  1  0  0  0  0
 65 66  1  0  0  0  0
 66 67  1  0  0  0  0
 66 68  1  0  0  0  0
 72 73  1  0  0  0  0
 73 74  1  0  0  0  0
 73 75  1  0  0  0  0
 77 78  1  0  0  0  0
 77 79  1  0  0  0  0
 80 81  1  0  0  0  0
 81 82  1  0  0  0  0
 81 83  1  0  0  0  0
M  END
>  <n>
301

>  <SMILES>
O=C1N(C)C(C(O)C(C\C=C\C)C)C(=O)NC(CC)C(=O)N(CC(=O)N(C)C(CC(C)C)C(=O)NC(C(C)C)C(=O)N(C)C(CC(C)C)C(=O)NC(C)C(=O)NC(C)C(=O)N(C)C(CC(C)C)C(=O)N(C)C(CC(C)C)C(=O)N(C)C1C(C)C)C

>  <IC50>
<10

>  <Class>
1

>  <NAME>
CYCLOSPORIN A

>  <INCHI_KEY>
PMATZTZNYRCHOR-IMVLJIQESA-N

>  <Reference>
Mitigating, Dawson, Interference

$$$$
CYSTEAMINE
  MOE2013           2D

  4  3  0  0  0  0  0  0  0  0999 V2000
   -1.2990    2.2500    0.0000 C   0  0  0  0  0  0  0  0  0  0  0  0
    0.0000    1.5000    0.0000 C   0  0  0  0  0  0  0  0  0  0  0  0
    0.0000    0.0000    0.0000 S   0  0  0  0  0  0  0  0  0  0  0  0
   -1.2990    3.7500    0.0000 N   0  0  0  0  0  0  0  0  0  0  0  0
  1  2  1  0  0  0  0
  1  4  1  0  0  0  0
  2  3  1  0  0  0  0
M  END
>  <n>
302

>  <SMILES>
SCCN

>  <IC50>
331

>  <Class>
0

>  <NAME>
CYSTEAMINE

>  <INCHI_KEY>
UFULAYFCSOUIOV-UHFFFAOYSA-N

>  <Reference>
Mitigating the inhibition of human Bile Salt Export Pump by drugs_ opportunities provided by physicochemical property modulation,  in-silico modeling and structural modification_SI

$$$$
Cangrelor
  MOE2013           2D

 44 46  0  0  1  0  0  0  0  0999 V2000
    3.8970   -6.7500    0.0000 C   0  0  0  0  0  0  0  0  0  0  0  0
    3.8970   -5.2500    0.0000 S   0  0  0  0  0  0  0  0  0  0  0  0
    2.5980   -4.5000    0.0000 C   0  0  0  0  0  0  0  0  0  0  0  0
    2.5980   -3.0000    0.0000 C   0  0  0  0  0  0  0  0  0  0  0  0
    1.2990   -2.2500    0.0000 N   0  0  0  0  0  0  0  0  0  0  0  0
    1.2990   -0.7500    0.0000 C   0  0  0  0  0  0  0  0  0  0  0  0
    0.0000    0.0000    0.0000 C   0  0  0  0  0  0  0  0  0  0  0  0
    0.0000    1.5000    0.0000 C   0  0  0  0  0  0  0  0  0  0  0  0
    1.2990    2.2500    0.0000 N   0  0  0  0  0  0  0  0  0  0  0  0
    2.5980    1.5000    0.0000 C   0  0  0  0  0  0  0  0  0  0  0  0
    2.5980    0.0000    0.0000 N   0  0  0  0  0  0  0  0  0  0  0  0
    3.8970    2.2500    0.0000 S   0  0  0  0  0  0  0  0  0  0  0  0
    3.8970    3.7500    0.0000 C   0  0  0  0  0  0  0  0  0  0  0  0
    5.1960    4.5000    0.0000 C   0  0  0  0  0  0  0  0  0  0  0  0
    5.1960    6.0000    0.0000 C   0  0  0  0  0  0  0  0  0  0  0  0
    6.4950    6.7500    0.0000 F   0  0  0  0  0  0  0  0  0  0  0  0
    4.6830    7.4100    0.0000 F   0  0  0  0  0  0  0  0  0  0  0  0
    3.7190    5.7400    0.0000 F   0  0  0  0  0  0  0  0  0  0  0  0
   -1.4270    1.9640    0.0000 N   0  0  0  0  0  0  0  0  0  0  0  0
   -2.3080    0.7500    0.0000 C   0  0  0  0  0  0  0  0  0  0  0  0
   -1.4270   -0.4640    0.0000 N   0  0  0  0  0  0  0  0  0  0  0  0
   -1.8900    3.3900    0.0000 C   0  0  3  0  0  0  0  0  0  0  0  0
   -1.0080    4.6040    0.0000 C   0  0  3  0  0  0  0  0  0  0  0  0
   -1.8900    5.8170    0.0000 C   0  0  3  0  0  0  0  0  0  0  0  0
   -3.3170    5.3540    0.0000 C   0  0  3  0  0  0  0  0  0  0  0  0
   -3.3170    3.8540    0.0000 O   0  0  0  0  0  0  0  0  0  0  0  0
   -4.5300    6.2350    0.0000 C   0  0  0  0  0  0  0  0  0  0  0  0
   -5.9000    5.6250    0.0000 O   0  0  0  0  0  0  0  0  0  0  0  0
   -7.1140    6.5070    0.0000 P   0  0  3  0  0  0  0  0  0  0  0  0
   -6.0350    7.5490    0.0000 O   0  0  0  0  0  0  0  0  0  0  0  0
   -7.9530    7.7500    0.0000 O   0  0  0  0  0  0  0  0  0  0  0  0
   -8.4840    5.8970    0.0000 O   0  0  0  0  0  0  0  0  0  0  0  0
   -9.6980    6.7780    0.0000 P   0  0  3  0  0  0  0  0  0  0  0  0
   -8.6190    7.8200    0.0000 O   0  0  0  0  0  0  0  0  0  0  0  0
  -11.0680    6.1680    0.0000 C   0  0  0  0  0  0  0  0  0  0  0  0
  -12.2820    7.0500    0.0000 P   0  0  0  0  0  0  0  0  0  0  0  0
  -13.6520    6.4400    0.0000 O   0  0  0  0  0  0  0  0  0  0  0  0
  -11.2030    8.0920    0.0000 O   0  0  0  0  0  0  0  0  0  0  0  0
  -13.1200    8.2940    0.0000 O   0  0  0  0  0  0  0  0  0  0  0  0
  -12.1470    5.1260    0.0000 Cl  0  0  0  0  0  0  0  0  0  0  0  0
  -10.2290    4.9250    0.0000 Cl  0  0  0  0  0  0  0  0  0  0  0  0
  -10.5370    8.0220    0.0000 O   0  0  0  0  0  0  0  0  0  0  0  0
   -1.4270    7.2440    0.0000 O   0  0  0  0  0  0  0  0  0  0  0  0
    0.4920    4.6040    0.0000 O   0  0  0  0  0  0  0  0  0  0  0  0
  1  2  1  0  0  0  0
  2  3  1  0  0  0  0
  3  4  1  0  0  0  0
  4  5  1  0  0  0  0
  5  6  1  0  0  0  0
  6  7  1  0  0  0  0
  6 11  2  0  0  0  0
  7  8  2  0  0  0  0
  7 21  1  0  0  0  0
  8  9  1  0  0  0  0
  8 19  1  0  0  0  0
  9 10  2  0  0  0  0
 10 11  1  0  0  0  0
 10 12  1  0  0  0  0
 12 13  1  0  0  0  0
 13 14  1  0  0  0  0
 14 15  1  0  0  0  0
 15 16  1  0  0  0  0
 15 17  1  0  0  0  0
 15 18  1  0  0  0  0
 19 20  1  0  0  0  0
 19 22  1  0  0  0  0
 20 21  2  0  0  0  0
 22 23  1  0  0  0  0
 22 26  1  0  0  0  0
 23 24  1  0  0  0  0
 23 44  1  0  0  0  0
 24 25  1  0  0  0  0
 24 43  1  0  0  0  0
 25 26  1  0  0  0  0
 25 27  1  0  0  0  0
 27 28  1  0  0  0  0
 28 29  1  0  0  0  0
 29 30  2  0  0  0  0
 29 31  1  0  0  0  0
 29 32  1  0  0  0  0
 32 33  1  0  0  0  0
 33 34  2  0  0  0  0
 33 35  1  0  0  0  0
 33 42  1  0  0  0  0
 35 36  1  0  0  0  0
 35 40  1  0  0  0  0
 35 41  1  0  0  0  0
 36 37  2  0  0  0  0
 36 38  1  0  0  0  0
 36 39  1  0  0  0  0
M  END
>  <n>
271

>  <SMILES>
ClC(Cl)(P(OP(OC[C@H]1O[C@@H](n2c3nc(SCCC(F)(F)F)nc(NCCSC)c3nc2)[C@H](O)[C@@H]1O)(O)=O)(O)=O)P(O)(O)=O

>  <IC50>
>1000

>  <Class>
0

>  <NAME>
Cangrelor

>  <INCHI_KEY>
PAEBIVWUMLRPSK-IDTAVKCVSA-N

>  <Reference>
Mitigating the inhibition of human Bile Salt Export Pump by drugs_ opportunities provided by physicochemical property modulation,  in-silico modeling and structural modification_SI

$$$$
DAPSONE
  MOE2013           2D

 17 18  0  0  0  0  0  0  0  0999 V2000
    2.5980   -4.5000    0.0000 C   0  0  0  0  0  0  0  0  0  0  0  0
    2.5980   -3.0000    0.0000 C   0  0  0  0  0  0  0  0  0  0  0  0
    1.2990   -2.2500    0.0000 C   0  0  0  0  0  0  0  0  0  0  0  0
    0.0000   -3.0000    0.0000 C   0  0  0  0  0  0  0  0  0  0  0  0
    0.0000   -4.5000    0.0000 C   0  0  0  0  0  0  0  0  0  0  0  0
    1.2990   -5.2500    0.0000 C   0  0  0  0  0  0  0  0  0  0  0  0
    1.2990   -6.7500    0.0000 N   0  0  0  0  0  0  0  0  0  0  0  0
    1.2990   -0.7500    0.0000 S   0  0  0  0  0  0  0  0  0  0  0  0
    2.7760   -1.0100    0.0000 O   0  0  0  0  0  0  0  0  0  0  0  0
    1.8120    0.6600    0.0000 O   0  0  0  0  0  0  0  0  0  0  0  0
    0.0000    0.0000    0.0000 C   0  0  0  0  0  0  0  0  0  0  0  0
    0.0000    1.5000    0.0000 C   0  0  0  0  0  0  0  0  0  0  0  0
   -1.2990    2.2500    0.0000 C   0  0  0  0  0  0  0  0  0  0  0  0
   -2.5980    1.5000    0.0000 C   0  0  0  0  0  0  0  0  0  0  0  0
   -2.5980    0.0000    0.0000 C   0  0  0  0  0  0  0  0  0  0  0  0
   -1.2990   -0.7500    0.0000 C   0  0  0  0  0  0  0  0  0  0  0  0
   -3.8970    2.2500    0.0000 N   0  0  0  0  0  0  0  0  0  0  0  0
  1  2  1  0  0  0  0
  1  6  2  0  0  0  0
  2  3  2  0  0  0  0
  3  4  1  0  0  0  0
  3  8  1  0  0  0  0
  4  5  2  0  0  0  0
  5  6  1  0  0  0  0
  6  7  1  0  0  0  0
  8  9  2  0  0  0  0
  8 10  2  0  0  0  0
  8 11  1  0  0  0  0
 11 12  1  0  0  0  0
 11 16  2  0  0  0  0
 12 13  2  0  0  0  0
 13 14  1  0  0  0  0
 14 15  2  0  0  0  0
 14 17  1  0  0  0  0
 15 16  1  0  0  0  0
M  END
>  <n>
303

>  <SMILES>
S(=O)(=O)(c1ccc(N)cc1)c1ccc(N)cc1

>  <IC50>
>1000

>  <Class>
0

>  <NAME>
DAPSONE

>  <INCHI_KEY>
MQJKPEGWNLWLTK-UHFFFAOYSA-N

>  <Reference>
Mitigating, Dawson

$$$$
DASATINIB
  MOE2013           2D

 33 36  0  0  0  0  0  0  0  0999 V2000
    2.2700   -3.2550    0.0000 C   0  0  0  0  0  0  0  0  0  0  0  0
    3.6410   -2.6450    0.0000 C   0  0  0  0  0  0  0  0  0  0  0  0
    4.8540   -3.5270    0.0000 C   0  0  0  0  0  0  0  0  0  0  0  0
    6.2240   -2.9170    0.0000 C   0  0  0  0  0  0  0  0  0  0  0  0
    6.3810   -1.4250    0.0000 C   0  0  0  0  0  0  0  0  0  0  0  0
    5.1680   -0.5430    0.0000 C   0  0  0  0  0  0  0  0  0  0  0  0
    3.7970   -1.1530    0.0000 C   0  0  0  0  0  0  0  0  0  0  0  0
    2.5840   -0.2720    0.0000 N   0  0  0  0  0  0  0  0  0  0  0  0
    1.2140   -0.8820    0.0000 C   0  0  0  0  0  0  0  0  0  0  0  0
    1.0570   -2.3740    0.0000 O   0  0  0  0  0  0  0  0  0  0  0  0
    0.0000    0.0000    0.0000 C   0  0  0  0  0  0  0  0  0  0  0  0
    0.0000    1.5000    0.0000 C   0  0  0  0  0  0  0  0  0  0  0  0
   -1.4270    1.9640    0.0000 N   0  0  0  0  0  0  0  0  0  0  0  0
   -2.3080    0.7500    0.0000 C   0  0  0  0  0  0  0  0  0  0  0  0
   -1.4270   -0.4640    0.0000 S   0  0  0  0  0  0  0  0  0  0  0  0
   -3.8080    0.7500    0.0000 N   0  0  0  0  0  0  0  0  0  0  0  0
   -4.5580    2.0490    0.0000 C   0  0  0  0  0  0  0  0  0  0  0  0
   -3.8080    3.3480    0.0000 C   0  0  0  0  0  0  0  0  0  0  0  0
   -4.5580    4.6470    0.0000 C   0  0  0  0  0  0  0  0  0  0  0  0
   -6.0580    4.6470    0.0000 N   0  0  0  0  0  0  0  0  0  0  0  0
   -6.8080    3.3480    0.0000 C   0  0  0  0  0  0  0  0  0  0  0  0
   -6.0580    2.0490    0.0000 N   0  0  0  0  0  0  0  0  0  0  0  0
   -8.3080    3.3480    0.0000 C   0  0  0  0  0  0  0  0  0  0  0  0
   -3.8080    5.9460    0.0000 N   0  0  0  0  0  0  0  0  0  0  0  0
   -2.3080    5.9460    0.0000 C   0  0  0  0  0  0  0  0  0  0  0  0
   -1.5580    7.2450    0.0000 C   0  0  0  0  0  0  0  0  0  0  0  0
   -2.3080    8.5440    0.0000 N   0  0  0  0  0  0  0  0  0  0  0  0
   -3.8080    8.5440    0.0000 C   0  0  0  0  0  0  0  0  0  0  0  0
   -4.5580    7.2450    0.0000 C   0  0  0  0  0  0  0  0  0  0  0  0
   -1.5580    9.8430    0.0000 C   0  0  0  0  0  0  0  0  0  0  0  0
   -2.3080   11.1420    0.0000 C   0  0  0  0  0  0  0  0  0  0  0  0
   -1.5580   12.4410    0.0000 O   0  0  0  0  0  0  0  0  0  0  0  0
    5.3240    0.9490    0.0000 Cl  0  0  0  0  0  0  0  0  0  0  0  0
  1  2  1  0  0  0  0
  2  3  1  0  0  0  0
  2  7  2  0  0  0  0
  3  4  2  0  0  0  0
  4  5  1  0  0  0  0
  5  6  2  0  0  0  0
  6  7  1  0  0  0  0
  6 33  1  0  0  0  0
  7  8  1  0  0  0  0
  8  9  1  0  0  0  0
  9 10  2  0  0  0  0
  9 11  1  0  0  0  0
 11 12  2  0  0  0  0
 11 15  1  0  0  0  0
 12 13  1  0  0  0  0
 13 14  2  0  0  0  0
 14 15  1  0  0  0  0
 14 16  1  0  0  0  0
 16 17  1  0  0  0  0
 17 18  1  0  0  0  0
 17 22  2  0  0  0  0
 18 19  2  0  0  0  0
 19 20  1  0  0  0  0
 19 24  1  0  0  0  0
 20 21  2  0  0  0  0
 21 22  1  0  0  0  0
 21 23  1  0  0  0  0
 24 25  1  0  0  0  0
 24 29  1  0  0  0  0
 25 26  1  0  0  0  0
 26 27  1  0  0  0  0
 27 28  1  0  0  0  0
 27 30  1  0  0  0  0
 28 29  1  0  0  0  0
 30 31  1  0  0  0  0
 31 32  1  0  0  0  0
M  END
>  <n>
304

>  <SMILES>
Clc1cccc(C)c1NC(=O)c1sc(nc1)Nc1nc(nc(N2CCN(CC2)CCO)c1)C

>  <IC50>
<10

>  <Class>
1

>  <NAME>
DASATINIB

>  <INCHI_KEY>
ZBNZXTGUTAYRHI-UHFFFAOYSA-N

>  <Reference>
Mitigating the inhibition of human Bile Salt Export Pump by drugs_ opportunities provided by physicochemical property modulation,  in-silico modeling and structural modification_SI

$$$$
DAZOXIBEN
  MOE2013           2D

 17 18  0  0  0  0  0  0  0  0999 V2000
    6.6950    1.5590    0.0000 C   0  0  0  0  0  0  0  0  0  0  0  0
    5.3240    0.9490    0.0000 C   0  0  0  0  0  0  0  0  0  0  0  0
    5.1680   -0.5430    0.0000 C   0  0  0  0  0  0  0  0  0  0  0  0
    6.3810   -1.4250    0.0000 C   0  0  0  0  0  0  0  0  0  0  0  0
    7.7520   -0.8150    0.0000 C   0  0  0  0  0  0  0  0  0  0  0  0
    7.9080    0.6770    0.0000 C   0  0  0  0  0  0  0  0  0  0  0  0
    9.2790    1.2870    0.0000 C   0  0  0  0  0  0  0  0  0  0  0  0
   10.4920    0.4060    0.0000 O   0  0  0  0  0  0  0  0  0  0  0  0
    9.4350    2.7790    0.0000 O   0  0  0  0  0  0  0  0  0  0  0  0
    3.7970   -1.1530    0.0000 O   0  0  0  0  0  0  0  0  0  0  0  0
    2.5840   -0.2720    0.0000 C   0  0  0  0  0  0  0  0  0  0  0  0
    1.2140   -0.8820    0.0000 C   0  0  0  0  0  0  0  0  0  0  0  0
    0.0000    0.0000    0.0000 N   0  0  0  0  0  0  0  0  0  0  0  0
    0.0000    1.5000    0.0000 C   0  0  0  0  0  0  0  0  0  0  0  0
   -1.4270    1.9640    0.0000 C   0  0  0  0  0  0  0  0  0  0  0  0
   -2.3080    0.7500    0.0000 N   0  0  0  0  0  0  0  0  0  0  0  0
   -1.4270   -0.4640    0.0000 C   0  0  0  0  0  0  0  0  0  0  0  0
  1  2  1  0  0  0  0
  1  6  2  0  0  0  0
  2  3  2  0  0  0  0
  3  4  1  0  0  0  0
  3 10  1  0  0  0  0
  4  5  2  0  0  0  0
  5  6  1  0  0  0  0
  6  7  1  0  0  0  0
  7  8  2  0  0  0  0
  7  9  1  0  0  0  0
 10 11  1  0  0  0  0
 11 12  1  0  0  0  0
 12 13  1  0  0  0  0
 13 14  1  0  0  0  0
 13 17  1  0  0  0  0
 14 15  2  0  0  0  0
 15 16  1  0  0  0  0
 16 17  2  0  0  0  0
M  END
>  <n>
305

>  <SMILES>
O(CCn1ccnc1)c1ccc(cc1)C(O)=O

>  <IC50>
>1000

>  <Class>
0

>  <NAME>
DAZOXIBEN

>  <INCHI_KEY>
XQGZSYKGWHUSDH-UHFFFAOYSA-N

>  <Reference>
Mitigating the inhibition of human Bile Salt Export Pump by drugs_ opportunities provided by physicochemical property modulation,  in-silico modeling and structural modification_SI

$$$$
DEBRISOQUIN
  MOE2013           2D

 13 14  0  0  0  0  0  0  0  0999 V2000
    0.0000    0.0000    0.0000 C   0  0  0  0  0  0  0  0  0  0  0  0
    0.0000    1.5000    0.0000 C   0  0  0  0  0  0  0  0  0  0  0  0
   -1.2990    2.2500    0.0000 C   0  0  0  0  0  0  0  0  0  0  0  0
   -2.5980    1.5000    0.0000 C   0  0  0  0  0  0  0  0  0  0  0  0
   -2.5980    0.0000    0.0000 C   0  0  0  0  0  0  0  0  0  0  0  0
   -1.2990   -0.7500    0.0000 C   0  0  0  0  0  0  0  0  0  0  0  0
   -3.8970   -0.7500    0.0000 C   0  0  0  0  0  0  0  0  0  0  0  0
   -5.1960    0.0000    0.0000 C   0  0  0  0  0  0  0  0  0  0  0  0
   -5.1960    1.5000    0.0000 N   0  0  0  0  0  0  0  0  0  0  0  0
   -3.8970    2.2500    0.0000 C   0  0  0  0  0  0  0  0  0  0  0  0
   -6.4950    2.2500    0.0000 C   0  0  0  0  0  0  0  0  0  0  0  0
   -7.7940    1.5000    0.0000 N   0  0  0  0  0  0  0  0  0  0  0  0
   -6.4950    3.7500    0.0000 N   0  0  0  0  0  0  0  0  0  0  0  0
  1  2  1  0  0  0  0
  1  6  2  0  0  0  0
  2  3  2  0  0  0  0
  3  4  1  0  0  0  0
  4  5  2  0  0  0  0
  4 10  1  0  0  0  0
  5  6  1  0  0  0  0
  5  7  1  0  0  0  0
  7  8  1  0  0  0  0
  8  9  1  0  0  0  0
  9 10  1  0  0  0  0
  9 11  1  0  0  0  0
 11 12  2  0  0  0  0
 11 13  1  0  0  0  0
M  END
>  <n>
306

>  <SMILES>
NC(=N)N1CCc2c(C1)cccc2

>  <IC50>
>951.8

>  <Class>
0

>  <NAME>
DEBRISOQUIN

>  <INCHI_KEY>
JWPGJSVJDAJRLW-UHFFFAOYSA-N

>  <Reference>
Mitigating the inhibition of human Bile Salt Export Pump by drugs_ opportunities provided by physicochemical property modulation,  in-silico modeling and structural modification_SI

$$$$
DESIPRAMINE
  MOE2013           2D

 20 22  0  0  0  0  0  0  0  0999 V2000
    6.5330   -0.2620    0.0000 C   0  0  0  0  0  0  0  0  0  0  0  0
    5.1820    0.3880    0.0000 N   0  0  0  0  0  0  0  0  0  0  0  0
    3.9420   -0.4570    0.0000 C   0  0  0  0  0  0  0  0  0  0  0  0
    2.5910    0.1940    0.0000 C   0  0  0  0  0  0  0  0  0  0  0  0
    1.3520   -0.6510    0.0000 C   0  0  0  0  0  0  0  0  0  0  0  0
    0.0000    0.0000    0.0000 N   0  0  0  0  0  0  0  0  0  0  0  0
    0.0000    1.5000    0.0000 C   0  0  0  0  0  0  0  0  0  0  0  0
    1.3960    2.0480    0.0000 C   0  0  0  0  0  0  0  0  0  0  0  0
    1.6200    3.5310    0.0000 C   0  0  0  0  0  0  0  0  0  0  0  0
    0.4470    4.4660    0.0000 C   0  0  0  0  0  0  0  0  0  0  0  0
   -0.9490    3.9180    0.0000 C   0  0  0  0  0  0  0  0  0  0  0  0
   -1.1730    2.4350    0.0000 C   0  0  0  0  0  0  0  0  0  0  0  0
   -2.6350    2.1020    0.0000 C   0  0  0  0  0  0  0  0  0  0  0  0
   -3.2860    0.7500    0.0000 C   0  0  0  0  0  0  0  0  0  0  0  0
   -2.6350   -0.6020    0.0000 C   0  0  0  0  0  0  0  0  0  0  0  0
   -1.1730   -0.9350    0.0000 C   0  0  0  0  0  0  0  0  0  0  0  0
   -0.7310   -2.3690    0.0000 C   0  0  0  0  0  0  0  0  0  0  0  0
   -1.7510   -3.4680    0.0000 C   0  0  0  0  0  0  0  0  0  0  0  0
   -3.2130   -3.1340    0.0000 C   0  0  0  0  0  0  0  0  0  0  0  0
   -3.6550   -1.7010    0.0000 C   0  0  0  0  0  0  0  0  0  0  0  0
  1  2  1  0  0  0  0
  2  3  1  0  0  0  0
  3  4  1  0  0  0  0
  4  5  1  0  0  0  0
  5  6  1  0  0  0  0
  6  7  1  0  0  0  0
  6 16  1  0  0  0  0
  7  8  1  0  0  0  0
  7 12  2  0  0  0  0
  8  9  2  0  0  0  0
  9 10  1  0  0  0  0
 10 11  2  0  0  0  0
 11 12  1  0  0  0  0
 12 13  1  0  0  0  0
 13 14  1  0  0  0  0
 14 15  1  0  0  0  0
 15 16  1  0  0  0  0
 15 20  2  0  0  0  0
 16 17  2  0  0  0  0
 17 18  1  0  0  0  0
 18 19  2  0  0  0  0
 19 20  1  0  0  0  0
M  END
>  <n>
308

>  <SMILES>
N(CCCN1c2c(CCc3c1cccc3)cccc2)C

>  <IC50>
150.4

>  <Class>
0

>  <NAME>
DESIPRAMINE

>  <INCHI_KEY>
HCYAFALTSJYZDH-UHFFFAOYSA-N

>  <Reference>
Mitigating the inhibition of human Bile Salt Export Pump by drugs_ opportunities provided by physicochemical property modulation,  in-silico modeling and structural modification_SI

$$$$
DEVAZEPIDE
  MOE2013           2D

 31 35  0  0  1  0  0  0  0  0999 V2000
    3.9270   -5.1380    0.0000 C   0  0  0  0  0  0  0  0  0  0  0  0
    4.5160   -3.7590    0.0000 N   0  0  0  0  0  0  0  0  0  0  0  0
    6.0150   -3.6920    0.0000 C   0  0  0  0  0  0  0  0  0  0  0  0
    6.6250   -5.0620    0.0000 C   0  0  0  0  0  0  0  0  0  0  0  0
    8.1170   -5.2190    0.0000 C   0  0  0  0  0  0  0  0  0  0  0  0
    8.9980   -4.0050    0.0000 C   0  0  0  0  0  0  0  0  0  0  0  0
    8.3880   -2.6350    0.0000 C   0  0  0  0  0  0  0  0  0  0  0  0
    6.8970   -2.4780    0.0000 C   0  0  0  0  0  0  0  0  0  0  0  0
    6.4980   -1.0320    0.0000 C   0  0  0  0  0  0  0  0  0  0  0  0
    5.1180   -0.4420    0.0000 N   0  0  0  0  0  0  0  0  0  0  0  0
    3.7970   -1.1530    0.0000 C   0  0  3  0  0  0  0  0  0  0  0  0
    3.5300   -2.6290    0.0000 C   0  0  0  0  0  0  0  0  0  0  0  0
    2.0840   -3.0280    0.0000 O   0  0  0  0  0  0  0  0  0  0  0  0
    2.5840   -0.2720    0.0000 N   0  0  0  0  0  0  0  0  0  0  0  0
    1.2140   -0.8820    0.0000 C   0  0  0  0  0  0  0  0  0  0  0  0
    1.0570   -2.3740    0.0000 O   0  0  0  0  0  0  0  0  0  0  0  0
    0.0000    0.0000    0.0000 C   0  0  0  0  0  0  0  0  0  0  0  0
    0.0000    1.5000    0.0000 C   0  0  0  0  0  0  0  0  0  0  0  0
   -1.4270    1.9640    0.0000 C   0  0  0  0  0  0  0  0  0  0  0  0
   -2.0370    3.3340    0.0000 C   0  0  0  0  0  0  0  0  0  0  0  0
   -3.5280    3.4910    0.0000 C   0  0  0  0  0  0  0  0  0  0  0  0
   -4.4100    2.2770    0.0000 C   0  0  0  0  0  0  0  0  0  0  0  0
   -3.8000    0.9070    0.0000 C   0  0  0  0  0  0  0  0  0  0  0  0
   -2.3080    0.7500    0.0000 C   0  0  0  0  0  0  0  0  0  0  0  0
   -1.4270   -0.4640    0.0000 N   0  0  0  0  0  0  0  0  0  0  0  0
    7.6270   -0.0450    0.0000 C   0  0  0  0  0  0  0  0  0  0  0  0
    9.0470   -0.5300    0.0000 C   0  0  0  0  0  0  0  0  0  0  0  0
   10.1760    0.4570    0.0000 C   0  0  0  0  0  0  0  0  0  0  0  0
    9.8860    1.9290    0.0000 C   0  0  0  0  0  0  0  0  0  0  0  0
    8.4670    2.4140    0.0000 C   0  0  0  0  0  0  0  0  0  0  0  0
    7.3370    1.4270    0.0000 C   0  0  0  0  0  0  0  0  0  0  0  0
  1  2  1  0  0  0  0
  2  3  1  0  0  0  0
  2 12  1  0  0  0  0
  3  4  1  0  0  0  0
  3  8  2  0  0  0  0
  4  5  2  0  0  0  0
  5  6  1  0  0  0  0
  6  7  2  0  0  0  0
  7  8  1  0  0  0  0
  8  9  1  0  0  0  0
  9 10  2  0  0  0  0
  9 26  1  0  0  0  0
 10 11  1  0  0  0  0
 11 12  1  0  0  0  0
 11 14  1  0  0  0  0
 12 13  2  0  0  0  0
 14 15  1  0  0  0  0
 15 16  2  0  0  0  0
 15 17  1  0  0  0  0
 17 18  2  0  0  0  0
 17 25  1  0  0  0  0
 18 19  1  0  0  0  0
 19 20  1  0  0  0  0
 19 24  2  0  0  0  0
 20 21  2  0  0  0  0
 21 22  1  0  0  0  0
 22 23  2  0  0  0  0
 23 24  1  0  0  0  0
 24 25  1  0  0  0  0
 26 27  1  0  0  0  0
 26 31  2  0  0  0  0
 27 28  2  0  0  0  0
 28 29  1  0  0  0  0
 29 30  2  0  0  0  0
 30 31  1  0  0  0  0
M  END
>  <n>
309

>  <SMILES>
O=C1N(c2c(cccc2)C(=NC1NC(=O)c1[nH]c2c(c1)cccc2)c1ccccc1)C

>  <IC50>
<10

>  <Class>
1

>  <NAME>
DEVAZEPIDE

>  <INCHI_KEY>
NFHRQQKPEBFUJK-UHFFFAOYSA-N

>  <Reference>
Mitigating the inhibition of human Bile Salt Export Pump by drugs_ opportunities provided by physicochemical property modulation,  in-silico modeling and structural modification_SI

$$$$
DEXTROTHYROXINE_SODIUM
  MOE2013           2D

 24 25  0  0  1  0  0  0  0  0999 V2000
    5.1960    0.0000    0.0000 C   0  0  0  0  0  0  0  0  0  0  0  0
    5.1960    1.5000    0.0000 C   0  0  0  0  0  0  0  0  0  0  0  0
    3.8970    2.2500    0.0000 C   0  0  0  0  0  0  0  0  0  0  0  0
    2.5980    1.5000    0.0000 C   0  0  0  0  0  0  0  0  0  0  0  0
    2.5980    0.0000    0.0000 C   0  0  0  0  0  0  0  0  0  0  0  0
    3.8970   -0.7500    0.0000 C   0  0  0  0  0  0  0  0  0  0  0  0
    3.8970   -2.2500    0.0000 I   0  0  0  0  0  0  0  0  0  0  0  0
    1.2990   -0.7500    0.0000 O   0  0  0  0  0  0  0  0  0  0  0  0
    0.0000    0.0000    0.0000 C   0  0  0  0  0  0  0  0  0  0  0  0
    0.0000    1.5000    0.0000 C   0  0  0  0  0  0  0  0  0  0  0  0
   -1.2990    2.2500    0.0000 C   0  0  0  0  0  0  0  0  0  0  0  0
   -2.5980    1.5000    0.0000 C   0  0  0  0  0  0  0  0  0  0  0  0
   -2.5980    0.0000    0.0000 C   0  0  0  0  0  0  0  0  0  0  0  0
   -1.2990   -0.7500    0.0000 C   0  0  0  0  0  0  0  0  0  0  0  0
   -3.8970   -0.7500    0.0000 I   0  0  0  0  0  0  0  0  0  0  0  0
   -3.8970    2.2500    0.0000 O   0  0  0  0  0  0  0  0  0  0  0  0
   -1.2990    3.7500    0.0000 I   0  0  0  0  0  0  0  0  0  0  0  0
    1.2990    2.2500    0.0000 I   0  0  0  0  0  0  0  0  0  0  0  0
    6.4950    2.2500    0.0000 C   0  0  0  0  0  0  0  0  0  0  0  0
    7.7940    1.5000    0.0000 C   0  0  3  0  0  0  0  0  0  0  0  0
    9.0930    2.2500    0.0000 C   0  0  0  0  0  0  0  0  0  0  0  0
   10.3920    1.5000    0.0000 O   0  0  0  0  0  0  0  0  0  0  0  0
    9.0930    3.7500    0.0000 O   0  0  0  0  0  0  0  0  0  0  0  0
    7.7940    0.0000    0.0000 N   0  0  0  0  0  0  0  0  0  0  0  0
  1  2  1  0  0  0  0
  1  6  2  0  0  0  0
  2  3  2  0  0  0  0
  2 19  1  0  0  0  0
  3  4  1  0  0  0  0
  4  5  2  0  0  0  0
  4 18  1  0  0  0  0
  5  6  1  0  0  0  0
  5  8  1  0  0  0  0
  6  7  1  0  0  0  0
  8  9  1  0  0  0  0
  9 10  1  0  0  0  0
  9 14  2  0  0  0  0
 10 11  2  0  0  0  0
 11 12  1  0  0  0  0
 11 17  1  0  0  0  0
 12 13  2  0  0  0  0
 12 16  1  0  0  0  0
 13 14  1  0  0  0  0
 13 15  1  0  0  0  0
 19 20  1  0  0  0  0
 20 21  1  0  0  0  0
 20 24  1  0  0  0  0
 21 22  2  0  0  0  0
 21 23  1  0  0  0  0
M  END
>  <n>
311

>  <SMILES>
Ic1cc(cc(I)c1Oc1cc(I)c(O)c(I)c1)C[C@H](N)C(O)=O

>  <IC50>
<10

>  <Class>
1

>  <NAME>
DEXTROTHYROXINE SODIUM

>  <INCHI_KEY>
XUIIKFGFIJCVMT-LBPRGKRZSA-N

>  <Reference>
Mitigating the inhibition of human Bile Salt Export Pump by drugs_ opportunities provided by physicochemical property modulation,  in-silico modeling and structural modification_SI

$$$$
DIAZOXIDE
  MOE2013           2D

 14 15  0  0  0  0  0  0  0  0999 V2000
    2.5980   -3.0000    0.0000 C   0  0  0  0  0  0  0  0  0  0  0  0
    1.2990   -2.2500    0.0000 C   0  0  0  0  0  0  0  0  0  0  0  0
    1.2990   -0.7500    0.0000 N   0  0  0  0  0  0  0  0  0  0  0  0
    0.0000    0.0000    0.0000 C   0  0  0  0  0  0  0  0  0  0  0  0
    0.0000    1.5000    0.0000 C   0  0  0  0  0  0  0  0  0  0  0  0
   -1.2990    2.2500    0.0000 C   0  0  0  0  0  0  0  0  0  0  0  0
   -2.5980    1.5000    0.0000 C   0  0  0  0  0  0  0  0  0  0  0  0
   -2.5980    0.0000    0.0000 C   0  0  0  0  0  0  0  0  0  0  0  0
   -1.2990   -0.7500    0.0000 C   0  0  0  0  0  0  0  0  0  0  0  0
   -1.2990   -2.2500    0.0000 S   0  0  0  0  0  0  0  0  0  0  0  0
   -2.7760   -1.9900    0.0000 O   0  0  0  0  0  0  0  0  0  0  0  0
   -1.8120   -3.6600    0.0000 O   0  0  0  0  0  0  0  0  0  0  0  0
    0.0000   -3.0000    0.0000 N   0  0  0  0  0  0  0  0  0  0  0  0
   -3.8970    2.2500    0.0000 Cl  0  0  0  0  0  0  0  0  0  0  0  0
  1  2  1  0  0  0  0
  2  3  2  0  0  0  0
  2 13  1  0  0  0  0
  3  4  1  0  0  0  0
  4  5  1  0  0  0  0
  4  9  2  0  0  0  0
  5  6  2  0  0  0  0
  6  7  1  0  0  0  0
  7  8  2  0  0  0  0
  7 14  1  0  0  0  0
  8  9  1  0  0  0  0
  9 10  1  0  0  0  0
 10 11  2  0  0  0  0
 10 12  2  0  0  0  0
 10 13  1  0  0  0  0
M  END
>  <n>
312

>  <SMILES>
Clc1cc2S(=O)(=O)NC(=Nc2cc1)C

>  <IC50>
>1000

>  <Class>
0

>  <NAME>
DIAZOXIDE

>  <INCHI_KEY>
GDLBFKVLRPITMI-UHFFFAOYSA-N

>  <Reference>
Mitigating the inhibition of human Bile Salt Export Pump by drugs_ opportunities provided by physicochemical property modulation,  in-silico modeling and structural modification_SI

$$$$
DIBENZOTHIOPHENE
  MOE2013           2D

 13 15  0  0  0  0  0  0  0  0999 V2000
    2.5980    1.5000    0.0000 C   0  0  0  0  0  0  0  0  0  0  0  0
    2.5980    0.0000    0.0000 C   0  0  0  0  0  0  0  0  0  0  0  0
    1.2990   -0.7500    0.0000 C   0  0  0  0  0  0  0  0  0  0  0  0
    0.0000    0.0000    0.0000 C   0  0  0  0  0  0  0  0  0  0  0  0
    0.0000    1.5000    0.0000 C   0  0  0  0  0  0  0  0  0  0  0  0
    1.2990    2.2500    0.0000 C   0  0  0  0  0  0  0  0  0  0  0  0
   -1.4270    1.9640    0.0000 C   0  0  0  0  0  0  0  0  0  0  0  0
   -2.0370    3.3340    0.0000 C   0  0  0  0  0  0  0  0  0  0  0  0
   -3.5280    3.4910    0.0000 C   0  0  0  0  0  0  0  0  0  0  0  0
   -4.4100    2.2770    0.0000 C   0  0  0  0  0  0  0  0  0  0  0  0
   -3.8000    0.9070    0.0000 C   0  0  0  0  0  0  0  0  0  0  0  0
   -2.3080    0.7500    0.0000 C   0  0  0  0  0  0  0  0  0  0  0  0
   -1.4270   -0.4640    0.0000 S   0  0  0  0  0  0  0  0  0  0  0  0
  1  2  1  0  0  0  0
  1  6  2  0  0  0  0
  2  3  2  0  0  0  0
  3  4  1  0  0  0  0
  4  5  2  0  0  0  0
  4 13  1  0  0  0  0
  5  6  1  0  0  0  0
  5  7  1  0  0  0  0
  7  8  1  0  0  0  0
  7 12  2  0  0  0  0
  8  9  2  0  0  0  0
  9 10  1  0  0  0  0
 10 11  2  0  0  0  0
 11 12  1  0  0  0  0
 12 13  1  0  0  0  0
M  END
>  <n>
313

>  <SMILES>
s1c2c(c3c1cccc3)cccc2

>  <IC50>
387.9

>  <Class>
0

>  <NAME>
DIBENZOTHIOPHENE

>  <INCHI_KEY>
IYYZUPMFVPLQIF-UHFFFAOYSA-N

>  <Reference>
Mitigating the inhibition of human Bile Salt Export Pump by drugs_ opportunities provided by physicochemical property modulation,  in-silico modeling and structural modification_SI

$$$$
DICHLORPHENAMIDE
  MOE2013           2D

 16 16  0  0  0  0  0  0  0  0999 V2000
    0.0000    0.0000    0.0000 C   0  0  0  0  0  0  0  0  0  0  0  0
    0.0000    1.5000    0.0000 C   0  0  0  0  0  0  0  0  0  0  0  0
   -1.2990    2.2500    0.0000 C   0  0  0  0  0  0  0  0  0  0  0  0
   -2.5980    1.5000    0.0000 C   0  0  0  0  0  0  0  0  0  0  0  0
   -2.5980    0.0000    0.0000 C   0  0  0  0  0  0  0  0  0  0  0  0
   -1.2990   -0.7500    0.0000 C   0  0  0  0  0  0  0  0  0  0  0  0
   -1.2990   -2.2500    0.0000 S   0  0  0  0  0  0  0  0  0  0  0  0
    0.0000   -3.0000    0.0000 O   0  0  0  0  0  0  0  0  0  0  0  0
   -2.7760   -1.9900    0.0000 O   0  0  0  0  0  0  0  0  0  0  0  0
   -1.8120   -3.6600    0.0000 N   0  0  0  0  0  0  0  0  0  0  0  0
   -3.8970   -0.7500    0.0000 Cl  0  0  0  0  0  0  0  0  0  0  0  0
   -3.8970    2.2500    0.0000 Cl  0  0  0  0  0  0  0  0  0  0  0  0
    1.2990    2.2500    0.0000 S   0  0  0  0  0  0  0  0  0  0  0  0
    1.2990    3.7500    0.0000 O   0  0  0  0  0  0  0  0  0  0  0  0
    1.8120    0.8400    0.0000 O   0  0  0  0  0  0  0  0  0  0  0  0
    2.7760    2.5100    0.0000 N   0  0  0  0  0  0  0  0  0  0  0  0
  1  2  1  0  0  0  0
  1  6  2  0  0  0  0
  2  3  2  0  0  0  0
  2 13  1  0  0  0  0
  3  4  1  0  0  0  0
  4  5  2  0  0  0  0
  4 12  1  0  0  0  0
  5  6  1  0  0  0  0
  5 11  1  0  0  0  0
  6  7  1  0  0  0  0
  7  8  2  0  0  0  0
  7  9  2  0  0  0  0
  7 10  1  0  0  0  0
 13 14  2  0  0  0  0
 13 15  2  0  0  0  0
 13 16  1  0  0  0  0
M  END
>  <n>
314

>  <SMILES>
Clc1c(S(=O)(=O)N)cc(S(=O)(=O)N)cc1Cl

>  <IC50>
>919.1

>  <Class>
0

>  <NAME>
DICHLORPHENAMIDE

>  <INCHI_KEY>
GJQPMPFPNINLKP-UHFFFAOYSA-N

>  <Reference>
Mitigating the inhibition of human Bile Salt Export Pump by drugs_ opportunities provided by physicochemical property modulation,  in-silico modeling and structural modification_SI

$$$$
DICLOFENAC
  MOE2013           2D

 19 20  0  0  0  0  0  0  0  0999 V2000
    0.0000    0.0000    0.0000 C   0  0  0  0  0  0  0  0  0  0  0  0
    0.0000    1.5000    0.0000 C   0  0  0  0  0  0  0  0  0  0  0  0
   -1.2990    2.2500    0.0000 C   0  0  0  0  0  0  0  0  0  0  0  0
   -2.5980    1.5000    0.0000 C   0  0  0  0  0  0  0  0  0  0  0  0
   -2.5980    0.0000    0.0000 C   0  0  0  0  0  0  0  0  0  0  0  0
   -1.2990   -0.7500    0.0000 C   0  0  0  0  0  0  0  0  0  0  0  0
   -3.8970   -0.7500    0.0000 C   0  0  0  0  0  0  0  0  0  0  0  0
   -3.8970   -2.2500    0.0000 C   0  0  0  0  0  0  0  0  0  0  0  0
   -5.1960   -3.0000    0.0000 O   0  0  0  0  0  0  0  0  0  0  0  0
   -2.5980   -3.0000    0.0000 O   0  0  0  0  0  0  0  0  0  0  0  0
   -3.8970    2.2500    0.0000 N   0  0  0  0  0  0  0  0  0  0  0  0
   -3.8970    3.7500    0.0000 C   0  0  0  0  0  0  0  0  0  0  0  0
   -2.5980    4.5000    0.0000 C   0  0  0  0  0  0  0  0  0  0  0  0
   -2.5980    6.0000    0.0000 C   0  0  0  0  0  0  0  0  0  0  0  0
   -3.8970    6.7500    0.0000 C   0  0  0  0  0  0  0  0  0  0  0  0
   -5.1960    6.0000    0.0000 C   0  0  0  0  0  0  0  0  0  0  0  0
   -5.1960    4.5000    0.0000 C   0  0  0  0  0  0  0  0  0  0  0  0
   -6.4950    3.7500    0.0000 Cl  0  0  0  0  0  0  0  0  0  0  0  0
   -1.2990    3.7500    0.0000 Cl  0  0  0  0  0  0  0  0  0  0  0  0
  1  2  1  0  0  0  0
  1  6  2  0  0  0  0
  2  3  2  0  0  0  0
  3  4  1  0  0  0  0
  4  5  2  0  0  0  0
  4 11  1  0  0  0  0
  5  6  1  0  0  0  0
  5  7  1  0  0  0  0
  7  8  1  0  0  0  0
  8  9  2  0  0  0  0
  8 10  1  0  0  0  0
 11 12  1  0  0  0  0
 12 13  1  0  0  0  0
 12 17  2  0  0  0  0
 13 14  2  0  0  0  0
 13 19  1  0  0  0  0
 14 15  1  0  0  0  0
 15 16  2  0  0  0  0
 16 17  1  0  0  0  0
 17 18  1  0  0  0  0
M  END
>  <n>
315

>  <SMILES>
Clc1cccc(Cl)c1Nc1ccccc1CC(O)=O

>  <IC50>
64.97

>  <Class>
0

>  <NAME>
DICLOFENAC

>  <INCHI_KEY>
DCOPUUMXTXDBNB-UHFFFAOYSA-N

>  <Reference>
Mitigating the inhibition of human Bile Salt Export Pump by drugs_ opportunities provided by physicochemical property modulation,  in-silico modeling and structural modification_SI

$$$$
DIFTALONE
  MOE2013           2D

 20 23  0  0  0  0  0  0  0  0999 V2000
    2.5980   -4.5000    0.0000 C   0  0  0  0  0  0  0  0  0  0  0  0
    1.2990   -5.2500    0.0000 C   0  0  0  0  0  0  0  0  0  0  0  0
    0.0000   -4.5000    0.0000 C   0  0  0  0  0  0  0  0  0  0  0  0
    0.0000   -3.0000    0.0000 C   0  0  0  0  0  0  0  0  0  0  0  0
    1.2990   -2.2500    0.0000 C   0  0  0  0  0  0  0  0  0  0  0  0
    2.5980   -3.0000    0.0000 C   0  0  0  0  0  0  0  0  0  0  0  0
    1.2990   -0.7500    0.0000 C   0  0  0  0  0  0  0  0  0  0  0  0
    0.0000    0.0000    0.0000 N   0  0  0  0  0  0  0  0  0  0  0  0
    0.0000    1.5000    0.0000 C   0  0  0  0  0  0  0  0  0  0  0  0
    1.2990    2.2500    0.0000 O   0  0  0  0  0  0  0  0  0  0  0  0
   -1.2990    2.2500    0.0000 C   0  0  0  0  0  0  0  0  0  0  0  0
   -1.2990    3.7500    0.0000 C   0  0  0  0  0  0  0  0  0  0  0  0
   -2.5980    4.5000    0.0000 C   0  0  0  0  0  0  0  0  0  0  0  0
   -3.8970    3.7500    0.0000 C   0  0  0  0  0  0  0  0  0  0  0  0
   -3.8970    2.2500    0.0000 C   0  0  0  0  0  0  0  0  0  0  0  0
   -2.5980    1.5000    0.0000 C   0  0  0  0  0  0  0  0  0  0  0  0
   -2.5980    0.0000    0.0000 C   0  0  0  0  0  0  0  0  0  0  0  0
   -1.2990   -0.7500    0.0000 N   0  0  0  0  0  0  0  0  0  0  0  0
   -1.2990   -2.2500    0.0000 C   0  0  0  0  0  0  0  0  0  0  0  0
   -2.5980   -3.0000    0.0000 O   0  0  0  0  0  0  0  0  0  0  0  0
  1  2  1  0  0  0  0
  1  6  2  0  0  0  0
  2  3  2  0  0  0  0
  3  4  1  0  0  0  0
  4  5  2  0  0  0  0
  4 19  1  0  0  0  0
  5  6  1  0  0  0  0
  5  7  1  0  0  0  0
  7  8  1  0  0  0  0
  8  9  1  0  0  0  0
  8 18  1  0  0  0  0
  9 10  2  0  0  0  0
  9 11  1  0  0  0  0
 11 12  1  0  0  0  0
 11 16  2  0  0  0  0
 12 13  2  0  0  0  0
 13 14  1  0  0  0  0
 14 15  2  0  0  0  0
 15 16  1  0  0  0  0
 16 17  1  0  0  0  0
 17 18  1  0  0  0  0
 18 19  1  0  0  0  0
 19 20  2  0  0  0  0
M  END
>  <n>
318

>  <SMILES>
O=C1N2N(Cc3c1cccc3)C(=O)c1c(C2)cccc1

>  <IC50>
>1000

>  <Class>
0

>  <NAME>
DIFTALONE

>  <INCHI_KEY>
CXSJGNHRBWJXEA-UHFFFAOYSA-N

>  <Reference>
Mitigating the inhibition of human Bile Salt Export Pump by drugs_ opportunities provided by physicochemical property modulation,  in-silico modeling and structural modification_SI

$$$$
DIGITOXIN
  MOE2013           2D

 54 61  0  0  1  0  0  0  0  0999 V2000
  -22.9670    1.4220    0.0000 C   0  0  0  0  0  0  0  0  0  0  0  0
  -21.6680    0.6720    0.0000 C   0  0  3  0  0  0  0  0  0  0  0  0
  -21.6680   -0.8280    0.0000 C   0  0  3  0  0  0  0  0  0  0  0  0
  -20.3690   -1.5780    0.0000 C   0  0  3  0  0  0  0  0  0  0  0  0
  -19.0700   -0.8280    0.0000 C   0  0  0  0  0  0  0  0  0  0  0  0
  -19.0700    0.6720    0.0000 C   0  0  3  0  0  0  0  0  0  0  0  0
  -20.3690    1.4220    0.0000 O   0  0  0  0  0  0  0  0  0  0  0  0
  -17.7710    1.4220    0.0000 O   0  0  0  0  0  0  0  0  0  0  0  0
  -16.4720    0.6720    0.0000 C   0  0  3  0  0  0  0  0  0  0  0  0
  -16.4720   -0.8280    0.0000 C   0  0  3  0  0  0  0  0  0  0  0  0
  -15.1730   -1.5780    0.0000 O   0  0  0  0  0  0  0  0  0  0  0  0
  -13.8740   -0.8280    0.0000 C   0  0  3  0  0  0  0  0  0  0  0  0
  -13.8740    0.6720    0.0000 C   0  0  0  0  0  0  0  0  0  0  0  0
  -15.1730    1.4220    0.0000 C   0  0  3  0  0  0  0  0  0  0  0  0
  -15.1730    2.9220    0.0000 O   0  0  0  0  0  0  0  0  0  0  0  0
  -12.5750   -1.5780    0.0000 O   0  0  0  0  0  0  0  0  0  0  0  0
  -11.2760   -0.8280    0.0000 C   0  0  3  0  0  0  0  0  0  0  0  0
   -9.9770   -1.5790    0.0000 C   0  0  3  0  0  0  0  0  0  0  0  0
   -8.6780   -0.8290    0.0000 O   0  0  0  0  0  0  0  0  0  0  0  0
   -8.6780    0.6710    0.0000 C   0  0  3  0  0  0  0  0  0  0  0  0
   -9.9770    1.4210    0.0000 C   0  0  0  0  0  0  0  0  0  0  0  0
  -11.2760    0.6720    0.0000 C   0  0  3  0  0  0  0  0  0  0  0  0
  -12.5750    1.4220    0.0000 O   0  0  0  0  0  0  0  0  0  0  0  0
   -7.3790    1.4210    0.0000 O   0  0  0  0  0  0  0  0  0  0  0  0
   -6.0800    0.6710    0.0000 C   0  0  3  0  0  0  0  0  0  0  0  0
   -6.0800   -0.7290    0.0000 C   0  0  0  0  0  0  0  0  0  0  0  0
   -4.8670   -1.4290    0.0000 C   0  0  0  0  0  0  0  0  0  0  0  0
   -3.6550   -0.7290    0.0000 C   0  0  3  0  0  0  0  0  0  0  0  0
   -3.6550    0.6710    0.0000 C   0  0  3  0  0  0  0  0  0  0  0  0
   -4.8670    1.3710    0.0000 C   0  0  0  0  0  0  0  0  0  0  0  0
   -2.4430    1.3710    0.0000 C   0  0  0  0  0  0  0  0  0  0  0  0
   -1.2300    0.6710    0.0000 C   0  0  0  0  0  0  0  0  0  0  0  0
   -1.2300   -0.7290    0.0000 C   0  0  3  0  0  0  0  0  0  0  0  0
   -2.4430   -1.4290    0.0000 C   0  0  3  0  0  0  0  0  0  0  0  0
   -2.4430   -2.8290    0.0000 C   0  0  0  0  0  0  0  0  0  0  0  0
   -1.2300   -3.5290    0.0000 C   0  0  0  0  0  0  0  0  0  0  0  0
   -0.0180   -2.8290    0.0000 C   0  0  3  0  0  0  0  0  0  0  0  0
   -0.0180   -1.4290    0.0000 C   0  0  3  0  0  0  0  0  0  0  0  0
    1.3140   -0.9960    0.0000 C   0  0  0  0  0  0  0  0  0  0  0  0
    2.1370   -2.1290    0.0000 C   0  0  0  0  0  0  0  0  0  0  0  0
    1.3140   -3.2610    0.0000 C   0  0  3  0  0  0  0  0  0  0  0  0
    1.7770   -4.6880    0.0000 C   0  0  0  0  0  0  0  0  0  0  0  0
    0.8960   -5.9010    0.0000 C   0  0  0  0  0  0  0  0  0  0  0  0
    1.7770   -7.1150    0.0000 C   0  0  0  0  0  0  0  0  0  0  0  0
    1.3140   -8.5410    0.0000 O   0  0  0  0  0  0  0  0  0  0  0  0
    3.2040   -6.6510    0.0000 O   0  0  0  0  0  0  0  0  0  0  0  0
    3.2040   -5.1510    0.0000 C   0  0  0  0  0  0  0  0  0  0  0  0
    0.1390    0.0630    0.0000 O   0  0  0  0  0  0  0  0  0  0  0  0
    0.1390   -4.3200    0.0000 C   0  0  0  0  0  0  0  0  0  0  0  0
   -3.6550   -2.2290    0.0000 C   0  0  0  0  0  0  0  0  0  0  0  0
   -9.9770   -3.0790    0.0000 C   0  0  0  0  0  0  0  0  0  0  0  0
  -17.7710   -1.5780    0.0000 C   0  0  0  0  0  0  0  0  0  0  0  0
  -20.3690   -3.0780    0.0000 O   0  0  0  0  0  0  0  0  0  0  0  0
  -22.9670   -1.5780    0.0000 O   0  0  0  0  0  0  0  0  0  0  0  0
  1  2  1  0  0  0  0
  2  3  1  0  0  0  0
  2  7  1  0  0  0  0
  3  4  1  0  0  0  0
  3 54  1  0  0  0  0
  4  5  1  0  0  0  0
  4 53  1  0  0  0  0
  5  6  1  0  0  0  0
  6  7  1  0  0  0  0
  6  8  1  0  0  0  0
  8  9  1  0  0  0  0
  9 10  1  0  0  0  0
  9 14  1  0  0  0  0
 10 11  1  0  0  0  0
 10 52  1  0  0  0  0
 11 12  1  0  0  0  0
 12 13  1  0  0  0  0
 12 16  1  0  0  0  0
 13 14  1  0  0  0  0
 14 15  1  0  0  0  0
 16 17  1  0  0  0  0
 17 18  1  0  0  0  0
 17 22  1  0  0  0  0
 18 19  1  0  0  0  0
 18 51  1  0  0  0  0
 19 20  1  0  0  0  0
 20 21  1  0  0  0  0
 20 24  1  0  0  0  0
 21 22  1  0  0  0  0
 22 23  1  0  0  0  0
 24 25  1  0  0  0  0
 25 26  1  0  0  0  0
 25 30  1  0  0  0  0
 26 27  1  0  0  0  0
 27 28  1  0  0  0  0
 28 29  1  0  0  0  0
 28 34  1  0  0  0  0
 28 50  1  0  0  0  0
 29 30  1  0  0  0  0
 29 31  1  0  0  0  0
 31 32  1  0  0  0  0
 32 33  1  0  0  0  0
 33 34  1  0  0  0  0
 33 38  1  0  0  0  0
 34 35  1  0  0  0  0
 35 36  1  0  0  0  0
 36 37  1  0  0  0  0
 37 38  1  0  0  0  0
 37 41  1  0  0  0  0
 37 49  1  0  0  0  0
 38 39  1  0  0  0  0
 38 48  1  0  0  0  0
 39 40  1  0  0  0  0
 40 41  1  0  0  0  0
 41 42  1  0  0  0  0
 42 43  2  0  0  0  0
 42 47  1  0  0  0  0
 43 44  1  0  0  0  0
 44 45  2  0  0  0  0
 44 46  1  0  0  0  0
 46 47  1  0  0  0  0
M  END
>  <n>
319

>  <SMILES>
O1C(C)C(OC2OC(C)C(O)C(O)C2)C(O)CC1OC1C(OC(OC2CC3CCC4C(CCC5(C)C(CCC45O)C4=CC(OC4)=O)C3(CC2)C)CC1O)C

>  <IC50>
<10

>  <Class>
1

>  <NAME>
DIGITOXIN

>  <INCHI_KEY>
WDJUZGPOPHTGOT-UHFFFAOYSA-N

>  <Reference>
Mitigating the inhibition of human Bile Salt Export Pump by drugs_ opportunities provided by physicochemical property modulation,  in-silico modeling and structural modification_SI

$$$$
DIGOXIN
  MOE2013           2D

 55 62  0  0  1  0  0  0  0  0999 V2000
  -22.9670    1.4220    0.0000 C   0  0  0  0  0  0  0  0  0  0  0  0
  -21.6680    0.6720    0.0000 C   0  0  3  0  0  0  0  0  0  0  0  0
  -21.6680   -0.8280    0.0000 C   0  0  3  0  0  0  0  0  0  0  0  0
  -20.3690   -1.5780    0.0000 C   0  0  3  0  0  0  0  0  0  0  0  0
  -19.0700   -0.8280    0.0000 C   0  0  0  0  0  0  0  0  0  0  0  0
  -19.0700    0.6720    0.0000 C   0  0  3  0  0  0  0  0  0  0  0  0
  -20.3690    1.4220    0.0000 O   0  0  0  0  0  0  0  0  0  0  0  0
  -17.7710    1.4220    0.0000 O   0  0  0  0  0  0  0  0  0  0  0  0
  -16.4720    0.6720    0.0000 C   0  0  3  0  0  0  0  0  0  0  0  0
  -16.4720   -0.8280    0.0000 C   0  0  3  0  0  0  0  0  0  0  0  0
  -15.1730   -1.5780    0.0000 O   0  0  0  0  0  0  0  0  0  0  0  0
  -13.8740   -0.8280    0.0000 C   0  0  3  0  0  0  0  0  0  0  0  0
  -13.8740    0.6720    0.0000 C   0  0  0  0  0  0  0  0  0  0  0  0
  -15.1730    1.4220    0.0000 C   0  0  3  0  0  0  0  0  0  0  0  0
  -15.1730    2.9220    0.0000 O   0  0  0  0  0  0  0  0  0  0  0  0
  -12.5750   -1.5780    0.0000 O   0  0  0  0  0  0  0  0  0  0  0  0
  -11.2760   -0.8280    0.0000 C   0  0  3  0  0  0  0  0  0  0  0  0
   -9.9770   -1.5790    0.0000 C   0  0  3  0  0  0  0  0  0  0  0  0
   -8.6780   -0.8290    0.0000 O   0  0  0  0  0  0  0  0  0  0  0  0
   -8.6780    0.6710    0.0000 C   0  0  3  0  0  0  0  0  0  0  0  0
   -9.9770    1.4210    0.0000 C   0  0  0  0  0  0  0  0  0  0  0  0
  -11.2760    0.6720    0.0000 C   0  0  3  0  0  0  0  0  0  0  0  0
  -12.5750    1.4220    0.0000 O   0  0  0  0  0  0  0  0  0  0  0  0
   -7.3790    1.4210    0.0000 O   0  0  0  0  0  0  0  0  0  0  0  0
   -6.0800    0.6710    0.0000 C   0  0  3  0  0  0  0  0  0  0  0  0
   -6.0800   -0.7290    0.0000 C   0  0  0  0  0  0  0  0  0  0  0  0
   -4.8670   -1.4290    0.0000 C   0  0  0  0  0  0  0  0  0  0  0  0
   -3.6550   -0.7290    0.0000 C   0  0  1  0  0  0  0  0  0  0  0  0
   -3.6550    0.6710    0.0000 C   0  0  3  0  0  0  0  0  0  0  0  0
   -4.8670    1.3710    0.0000 C   0  0  0  0  0  0  0  0  0  0  0  0
   -2.4430    1.3710    0.0000 C   0  0  0  0  0  0  0  0  0  0  0  0
   -1.2300    0.6710    0.0000 C   0  0  0  0  0  0  0  0  0  0  0  0
   -1.2300   -0.7290    0.0000 C   0  0  3  0  0  0  0  0  0  0  0  0
   -2.4430   -1.4290    0.0000 C   0  0  3  0  0  0  0  0  0  0  0  0
   -2.4430   -2.8290    0.0000 C   0  0  0  0  0  0  0  0  0  0  0  0
   -1.2300   -3.5290    0.0000 C   0  0  3  0  0  0  0  0  0  0  0  0
   -0.0180   -2.8290    0.0000 C   0  0  1  0  0  0  0  0  0  0  0  0
   -0.0180   -1.4290    0.0000 C   0  0  2  0  0  0  0  0  0  0  0  0
    1.3140   -0.9960    0.0000 C   0  0  0  0  0  0  0  0  0  0  0  0
    2.1370   -2.1290    0.0000 C   0  0  0  0  0  0  0  0  0  0  0  0
    1.3140   -3.2610    0.0000 C   0  0  3  0  0  0  0  0  0  0  0  0
    1.7770   -4.6880    0.0000 C   0  0  0  0  0  0  0  0  0  0  0  0
    0.8960   -5.9010    0.0000 C   0  0  0  0  0  0  0  0  0  0  0  0
    1.7770   -7.1150    0.0000 C   0  0  0  0  0  0  0  0  0  0  0  0
    1.3140   -8.5410    0.0000 O   0  0  0  0  0  0  0  0  0  0  0  0
    3.2040   -6.6510    0.0000 O   0  0  0  0  0  0  0  0  0  0  0  0
    3.2040   -5.1510    0.0000 C   0  0  0  0  0  0  0  0  0  0  0  0
    0.1390    0.0630    0.0000 O   0  0  0  0  0  0  0  0  0  0  0  0
    0.1390   -4.3200    0.0000 C   0  0  0  0  0  0  0  0  0  0  0  0
   -1.2300   -5.0290    0.0000 O   0  0  0  0  0  0  0  0  0  0  0  0
   -3.6550   -2.2290    0.0000 C   0  0  0  0  0  0  0  0  0  0  0  0
   -9.9770   -3.0790    0.0000 C   0  0  0  0  0  0  0  0  0  0  0  0
  -17.7710   -1.5780    0.0000 C   0  0  0  0  0  0  0  0  0  0  0  0
  -20.3690   -3.0780    0.0000 O   0  0  0  0  0  0  0  0  0  0  0  0
  -22.9670   -1.5780    0.0000 O   0  0  0  0  0  0  0  0  0  0  0  0
  1  2  1  0  0  0  0
  2  3  1  0  0  0  0
  2  7  1  0  0  0  0
  3  4  1  0  0  0  0
  3 55  1  0  0  0  0
  4  5  1  0  0  0  0
  4 54  1  0  0  0  0
  5  6  1  0  0  0  0
  6  7  1  0  0  0  0
  6  8  1  0  0  0  0
  8  9  1  0  0  0  0
  9 10  1  0  0  0  0
  9 14  1  0  0  0  0
 10 11  1  0  0  0  0
 10 53  1  0  0  0  0
 11 12  1  0  0  0  0
 12 13  1  0  0  0  0
 12 16  1  0  0  0  0
 13 14  1  0  0  0  0
 14 15  1  0  0  0  0
 16 17  1  0  0  0  0
 17 18  1  0  0  0  0
 17 22  1  0  0  0  0
 18 19  1  0  0  0  0
 18 52  1  0  0  0  0
 19 20  1  0  0  0  0
 20 21  1  0  0  0  0
 20 24  1  0  0  0  0
 21 22  1  0  0  0  0
 22 23  1  0  0  0  0
 24 25  1  0  0  0  0
 25 26  1  0  0  0  0
 25 30  1  0  0  0  0
 26 27  1  0  0  0  0
 27 28  1  0  0  0  0
 28 29  1  0  0  0  0
 28 34  1  0  0  0  0
 28 51  1  6  0  0  0
 29 30  1  0  0  0  0
 29 31  1  0  0  0  0
 31 32  1  0  0  0  0
 32 33  1  0  0  0  0
 33 34  1  0  0  0  0
 33 38  1  0  0  0  0
 34 35  1  0  0  0  0
 35 36  1  0  0  0  0
 36 37  1  0  0  0  0
 36 50  1  0  0  0  0
 37 38  1  0  0  0  0
 37 41  1  0  0  0  0
 37 49  1  6  0  0  0
 38 39  1  0  0  0  0
 38 48  1  6  0  0  0
 39 40  1  0  0  0  0
 40 41  1  0  0  0  0
 41 42  1  0  0  0  0
 42 43  2  0  0  0  0
 42 47  1  0  0  0  0
 43 44  1  0  0  0  0
 44 45  2  0  0  0  0
 44 46  1  0  0  0  0
 46 47  1  0  0  0  0
M  END
>  <n>
320

>  <SMILES>
O1CC(=CC1=O)[C@H]1CC[C@]2(O)[C@H]3[C@H](C[C@@H](O)[C@]12C)[C@@]1([C@@H](C[C@@H](O[C@@H]2O[C@H](C)[C@@H](O[C@@H]4O[C@H](C)[C@@H](O[C@@H]5O[C@H](C)[C@@H](O)[C@@H](O)C5)[C@@H](O)C4)[C@@H](O)C2)CC1)CC3)C

>  <IC50>
264.1

>  <Class>
0

>  <NAME>
DIGOXIN

>  <INCHI_KEY>
LTMHDMANZUZIPE-PUGKRICDSA-N

>  <Reference>
Mitigating the inhibition of human Bile Salt Export Pump by drugs_ opportunities provided by physicochemical property modulation,  in-silico modeling and structural modification_SI

$$$$
DIHYDRALAZINE
  MOE2013           2D

 14 15  0  0  0  0  0  0  0  0999 V2000
    0.0000    0.0000    0.0000 C   0  0  0  0  0  0  0  0  0  0  0  0
    0.0000    1.5000    0.0000 C   0  0  0  0  0  0  0  0  0  0  0  0
   -1.2990    2.2500    0.0000 C   0  0  0  0  0  0  0  0  0  0  0  0
   -2.5980    1.5000    0.0000 C   0  0  0  0  0  0  0  0  0  0  0  0
   -2.5980    0.0000    0.0000 C   0  0  0  0  0  0  0  0  0  0  0  0
   -1.2990   -0.7500    0.0000 C   0  0  0  0  0  0  0  0  0  0  0  0
   -3.8970   -0.7500    0.0000 C   0  0  0  0  0  0  0  0  0  0  0  0
   -5.1960    0.0000    0.0000 N   0  0  0  0  0  0  0  0  0  0  0  0
   -5.1960    1.5000    0.0000 N   0  0  0  0  0  0  0  0  0  0  0  0
   -3.8970    2.2500    0.0000 C   0  0  0  0  0  0  0  0  0  0  0  0
   -3.8970    3.7500    0.0000 N   0  0  0  0  0  0  0  0  0  0  0  0
   -5.1960    4.5000    0.0000 N   0  0  0  0  0  0  0  0  0  0  0  0
   -3.8970   -2.2500    0.0000 N   0  0  0  0  0  0  0  0  0  0  0  0
   -5.1960   -3.0000    0.0000 N   0  0  0  0  0  0  0  0  0  0  0  0
  1  2  1  0  0  0  0
  1  6  2  0  0  0  0
  2  3  2  0  0  0  0
  3  4  1  0  0  0  0
  4  5  1  0  0  0  0
  4 10  2  0  0  0  0
  5  6  1  0  0  0  0
  5  7  2  0  0  0  0
  7  8  1  0  0  0  0
  7 13  1  0  0  0  0
  8  9  2  0  0  0  0
  9 10  1  0  0  0  0
 10 11  1  0  0  0  0
 11 12  1  0  0  0  0
 13 14  1  0  0  0  0
M  END
>  <n>
321

>  <SMILES>
n1nc(NN)c2c(cccc2)c1NN

>  <IC50>
>1000

>  <Class>
0

>  <NAME>
DIHYDRALAZINE

>  <INCHI_KEY>
VQKLRVZQQYVIJW-UHFFFAOYSA-N

>  <Reference>
Mitigating, Dawson

$$$$
DIIODOHYDROXYQUINOLIN_E
  MOE2013           2D

 13 14  0  0  0  0  0  0  0  0999 V2000
    1.2990   -2.2500    0.0000 C   0  0  0  0  0  0  0  0  0  0  0  0
    1.2990   -0.7500    0.0000 C   0  0  0  0  0  0  0  0  0  0  0  0
    0.0000    0.0000    0.0000 C   0  0  0  0  0  0  0  0  0  0  0  0
    0.0000    1.5000    0.0000 C   0  0  0  0  0  0  0  0  0  0  0  0
   -1.2990    2.2500    0.0000 C   0  0  0  0  0  0  0  0  0  0  0  0
   -2.5980    1.5000    0.0000 C   0  0  0  0  0  0  0  0  0  0  0  0
   -2.5980    0.0000    0.0000 C   0  0  0  0  0  0  0  0  0  0  0  0
   -1.2990   -0.7500    0.0000 C   0  0  0  0  0  0  0  0  0  0  0  0
   -1.2990   -2.2500    0.0000 N   0  0  0  0  0  0  0  0  0  0  0  0
    0.0000   -3.0000    0.0000 C   0  0  0  0  0  0  0  0  0  0  0  0
   -3.8970   -0.7500    0.0000 O   0  0  0  0  0  0  0  0  0  0  0  0
   -3.8970    2.2500    0.0000 I   0  0  0  0  0  0  0  0  0  0  0  0
    1.2990    2.2500    0.0000 I   0  0  0  0  0  0  0  0  0  0  0  0
  1  2  1  0  0  0  0
  1 10  2  0  0  0  0
  2  3  2  0  0  0  0
  3  4  1  0  0  0  0
  3  8  1  0  0  0  0
  4  5  2  0  0  0  0
  4 13  1  0  0  0  0
  5  6  1  0  0  0  0
  6  7  2  0  0  0  0
  6 12  1  0  0  0  0
  7  8  1  0  0  0  0
  7 11  1  0  0  0  0
  8  9  2  0  0  0  0
  9 10  1  0  0  0  0
M  END
>  <n>
322

>  <SMILES>
Ic1cc(I)c2c(nccc2)c1O

>  <IC50>
>1000

>  <Class>
0

>  <NAME>
DIIODOHYDROXYQUINOLIN E

>  <INCHI_KEY>
UXZFQZANDVDGMM-UHFFFAOYSA-N

>  <Reference>
Mitigating the inhibition of human Bile Salt Export Pump by drugs_ opportunities provided by physicochemical property modulation,  in-silico modeling and structural modification_SI

$$$$
DIMENHYDRINATE
  MOE2013           2D

 19 20  0  0  0  0  0  0  0  0999 V2000
    3.8970   -6.7500    0.0000 C   0  0  0  0  0  0  0  0  0  0  0  0
    3.8970   -5.2500    0.0000 N   0  0  0  0  0  0  0  0  0  0  0  0
    5.1960   -4.5000    0.0000 C   0  0  0  0  0  0  0  0  0  0  0  0
    2.5980   -4.5000    0.0000 C   0  0  0  0  0  0  0  0  0  0  0  0
    2.5980   -3.0000    0.0000 C   0  0  0  0  0  0  0  0  0  0  0  0
    1.2990   -2.2500    0.0000 O   0  0  0  0  0  0  0  0  0  0  0  0
    1.2990   -0.7500    0.0000 C   0  0  0  0  0  0  0  0  0  0  0  0
    2.5980    0.0000    0.0000 C   0  0  0  0  0  0  0  0  0  0  0  0
    3.8970   -0.7500    0.0000 C   0  0  0  0  0  0  0  0  0  0  0  0
    5.1960    0.0000    0.0000 C   0  0  0  0  0  0  0  0  0  0  0  0
    5.1960    1.5000    0.0000 C   0  0  0  0  0  0  0  0  0  0  0  0
    3.8970    2.2500    0.0000 C   0  0  0  0  0  0  0  0  0  0  0  0
    2.5980    1.5000    0.0000 C   0  0  0  0  0  0  0  0  0  0  0  0
    0.0000    0.0000    0.0000 C   0  0  0  0  0  0  0  0  0  0  0  0
    0.0000    1.5000    0.0000 C   0  0  0  0  0  0  0  0  0  0  0  0
   -1.2990    2.2500    0.0000 C   0  0  0  0  0  0  0  0  0  0  0  0
   -2.5980    1.5000    0.0000 C   0  0  0  0  0  0  0  0  0  0  0  0
   -2.5980    0.0000    0.0000 C   0  0  0  0  0  0  0  0  0  0  0  0
   -1.2990   -0.7500    0.0000 C   0  0  0  0  0  0  0  0  0  0  0  0
  1  2  1  0  0  0  0
  2  3  1  0  0  0  0
  2  4  1  0  0  0  0
  4  5  1  0  0  0  0
  5  6  1  0  0  0  0
  6  7  1  0  0  0  0
  7  8  1  0  0  0  0
  7 14  1  0  0  0  0
  8  9  1  0  0  0  0
  8 13  2  0  0  0  0
  9 10  2  0  0  0  0
 10 11  1  0  0  0  0
 11 12  2  0  0  0  0
 12 13  1  0  0  0  0
 14 15  1  0  0  0  0
 14 19  2  0  0  0  0
 15 16  2  0  0  0  0
 16 17  1  0  0  0  0
 17 18  2  0  0  0  0
 18 19  1  0  0  0  0
M  END
>  <n>
323

>  <SMILES>
O(C(c1ccccc1)c1ccccc1)CCN(C)C

>  <IC50>
>1000

>  <Class>
0

>  <NAME>
DIMENHYDRINATE

>  <INCHI_KEY>
ZZVUWRFHKOJYTH-UHFFFAOYSA-N

>  <Reference>
Mitigating the inhibition of human Bile Salt Export Pump by drugs_ opportunities provided by physicochemical property modulation,  in-silico modeling and structural modification_SI

$$$$
DIMETHADIONE
  MOE2013           2D

  9  9  0  0  0  0  0  0  0  0999 V2000
    0.3120   -1.4670    0.0000 C   0  0  0  0  0  0  0  0  0  0  0  0
    0.0000    0.0000    0.0000 C   0  0  0  0  0  0  0  0  0  0  0  0
    0.0000    1.5000    0.0000 C   0  0  0  0  0  0  0  0  0  0  0  0
    1.2140    2.3820    0.0000 O   0  0  0  0  0  0  0  0  0  0  0  0
   -1.4270    1.9640    0.0000 N   0  0  0  0  0  0  0  0  0  0  0  0
   -2.3080    0.7500    0.0000 C   0  0  0  0  0  0  0  0  0  0  0  0
   -3.8080    0.7500    0.0000 O   0  0  0  0  0  0  0  0  0  0  0  0
   -1.4270   -0.4640    0.0000 O   0  0  0  0  0  0  0  0  0  0  0  0
    1.4920    0.1570    0.0000 C   0  0  0  0  0  0  0  0  0  0  0  0
  1  2  1  0  0  0  0
  2  3  1  0  0  0  0
  2  8  1  0  0  0  0
  2  9  1  0  0  0  0
  3  4  2  0  0  0  0
  3  5  1  0  0  0  0
  5  6  1  0  0  0  0
  6  7  2  0  0  0  0
  6  8  1  0  0  0  0
M  END
>  <n>
324

>  <SMILES>
O1C(C)(C)C(=O)NC1=O

>  <IC50>
>1000

>  <Class>
0

>  <NAME>
DIMETHADIONE

>  <INCHI_KEY>
JYJFNDQBESEHJQ-UHFFFAOYSA-N

>  <Reference>
Mitigating the inhibition of human Bile Salt Export Pump by drugs_ opportunities provided by physicochemical property modulation,  in-silico modeling and structural modification_SI

$$$$
DIMETHISOQUIN
  MOE2013           2D

 20 21  0  0  0  0  0  0  0  0999 V2000
    3.8970   -6.7500    0.0000 C   0  0  0  0  0  0  0  0  0  0  0  0
    3.8970   -5.2500    0.0000 C   0  0  0  0  0  0  0  0  0  0  0  0
    2.5980   -4.5000    0.0000 C   0  0  0  0  0  0  0  0  0  0  0  0
    2.5980   -3.0000    0.0000 C   0  0  0  0  0  0  0  0  0  0  0  0
    1.2990   -2.2500    0.0000 C   0  0  0  0  0  0  0  0  0  0  0  0
    1.2990   -0.7500    0.0000 C   0  0  0  0  0  0  0  0  0  0  0  0
    0.0000    0.0000    0.0000 C   0  0  0  0  0  0  0  0  0  0  0  0
    0.0000    1.5000    0.0000 C   0  0  0  0  0  0  0  0  0  0  0  0
   -1.2990    2.2500    0.0000 C   0  0  0  0  0  0  0  0  0  0  0  0
   -2.5980    1.5000    0.0000 C   0  0  0  0  0  0  0  0  0  0  0  0
   -2.5980    0.0000    0.0000 C   0  0  0  0  0  0  0  0  0  0  0  0
   -1.2990   -0.7500    0.0000 C   0  0  0  0  0  0  0  0  0  0  0  0
   -1.2990   -2.2500    0.0000 C   0  0  0  0  0  0  0  0  0  0  0  0
    0.0000   -3.0000    0.0000 N   0  0  0  0  0  0  0  0  0  0  0  0
   -2.5980   -3.0000    0.0000 O   0  0  0  0  0  0  0  0  0  0  0  0
   -3.8970   -2.2500    0.0000 C   0  0  0  0  0  0  0  0  0  0  0  0
   -5.1960   -3.0000    0.0000 C   0  0  0  0  0  0  0  0  0  0  0  0
   -6.4950   -2.2500    0.0000 N   0  0  0  0  0  0  0  0  0  0  0  0
   -7.7940   -3.0000    0.0000 C   0  0  0  0  0  0  0  0  0  0  0  0
   -6.4950   -0.7500    0.0000 C   0  0  0  0  0  0  0  0  0  0  0  0
  1  2  1  0  0  0  0
  2  3  1  0  0  0  0
  3  4  1  0  0  0  0
  4  5  1  0  0  0  0
  5  6  1  0  0  0  0
  5 14  2  0  0  0  0
  6  7  2  0  0  0  0
  7  8  1  0  0  0  0
  7 12  1  0  0  0  0
  8  9  2  0  0  0  0
  9 10  1  0  0  0  0
 10 11  2  0  0  0  0
 11 12  1  0  0  0  0
 12 13  2  0  0  0  0
 13 14  1  0  0  0  0
 13 15  1  0  0  0  0
 15 16  1  0  0  0  0
 16 17  1  0  0  0  0
 17 18  1  0  0  0  0
 18 19  1  0  0  0  0
 18 20  1  0  0  0  0
M  END
>  <n>
325

>  <SMILES>
O(CCN(C)C)c1nc(cc2c1cccc2)CCCC

>  <IC50>
68.68

>  <Class>
0

>  <NAME>
DIMETHISOQUIN

>  <INCHI_KEY>
XNMYNYSCEJBRPZ-UHFFFAOYSA-N

>  <Reference>
Mitigating the inhibition of human Bile Salt Export Pump by drugs_ opportunities provided by physicochemical property modulation,  in-silico modeling and structural modification_SI

$$$$
DIPHENYLPYRALINE
  MOE2013           2D

 21 23  0  0  0  0  0  0  0  0999 V2000
    6.4950   -5.2500    0.0000 C   0  0  0  0  0  0  0  0  0  0  0  0
    5.1960   -4.5000    0.0000 N   0  0  0  0  0  0  0  0  0  0  0  0
    5.1960   -3.0000    0.0000 C   0  0  0  0  0  0  0  0  0  0  0  0
    3.8970   -2.2500    0.0000 C   0  0  0  0  0  0  0  0  0  0  0  0
    2.5980   -3.0000    0.0000 C   0  0  0  0  0  0  0  0  0  0  0  0
    2.5980   -4.5000    0.0000 C   0  0  0  0  0  0  0  0  0  0  0  0
    3.8970   -5.2500    0.0000 C   0  0  0  0  0  0  0  0  0  0  0  0
    1.2990   -2.2500    0.0000 O   0  0  0  0  0  0  0  0  0  0  0  0
    1.2990   -0.7500    0.0000 C   0  0  0  0  0  0  0  0  0  0  0  0
    0.0000    0.0000    0.0000 C   0  0  0  0  0  0  0  0  0  0  0  0
    0.0000    1.5000    0.0000 C   0  0  0  0  0  0  0  0  0  0  0  0
   -1.2990    2.2500    0.0000 C   0  0  0  0  0  0  0  0  0  0  0  0
   -2.5980    1.5000    0.0000 C   0  0  0  0  0  0  0  0  0  0  0  0
   -2.5980    0.0000    0.0000 C   0  0  0  0  0  0  0  0  0  0  0  0
   -1.2990   -0.7500    0.0000 C   0  0  0  0  0  0  0  0  0  0  0  0
    2.5980    0.0000    0.0000 C   0  0  0  0  0  0  0  0  0  0  0  0
    3.8970   -0.7500    0.0000 C   0  0  0  0  0  0  0  0  0  0  0  0
    5.1960    0.0000    0.0000 C   0  0  0  0  0  0  0  0  0  0  0  0
    5.1960    1.5000    0.0000 C   0  0  0  0  0  0  0  0  0  0  0  0
    3.8970    2.2500    0.0000 C   0  0  0  0  0  0  0  0  0  0  0  0
    2.5980    1.5000    0.0000 C   0  0  0  0  0  0  0  0  0  0  0  0
  1  2  1  0  0  0  0
  2  3  1  0  0  0  0
  2  7  1  0  0  0  0
  3  4  1  0  0  0  0
  4  5  1  0  0  0  0
  5  6  1  0  0  0  0
  5  8  1  0  0  0  0
  6  7  1  0  0  0  0
  8  9  1  0  0  0  0
  9 10  1  0  0  0  0
  9 16  1  0  0  0  0
 10 11  1  0  0  0  0
 10 15  2  0  0  0  0
 11 12  2  0  0  0  0
 12 13  1  0  0  0  0
 13 14  2  0  0  0  0
 14 15  1  0  0  0  0
 16 17  1  0  0  0  0
 16 21  2  0  0  0  0
 17 18  2  0  0  0  0
 18 19  1  0  0  0  0
 19 20  2  0  0  0  0
 20 21  1  0  0  0  0
M  END
>  <n>
326

>  <SMILES>
O(C(c1ccccc1)c1ccccc1)C1CCN(CC1)C

>  <IC50>
508.8

>  <Class>
0

>  <NAME>
DIPHENYLPYRALINE

>  <INCHI_KEY>
OWQUZNMMYNAXSL-UHFFFAOYSA-N

>  <Reference>
Mitigating the inhibition of human Bile Salt Export Pump by drugs_ opportunities provided by physicochemical property modulation,  in-silico modeling and structural modification_SI

$$$$
DIPROPHYLLINE
  MOE2013           2D

 18 19  0  0  1  0  0  0  0  0999 V2000
    1.2990   -2.2500    0.0000 C   0  0  0  0  0  0  0  0  0  0  0  0
    1.2990   -0.7500    0.0000 N   0  0  0  0  0  0  0  0  0  0  0  0
    0.0000    0.0000    0.0000 C   0  0  0  0  0  0  0  0  0  0  0  0
    0.0000    1.5000    0.0000 C   0  0  0  0  0  0  0  0  0  0  0  0
    1.2990    2.2500    0.0000 C   0  0  0  0  0  0  0  0  0  0  0  0
    1.2990    3.7500    0.0000 O   0  0  0  0  0  0  0  0  0  0  0  0
    2.5980    1.5000    0.0000 N   0  0  0  0  0  0  0  0  0  0  0  0
    2.5980    0.0000    0.0000 C   0  0  0  0  0  0  0  0  0  0  0  0
    3.8970   -0.7500    0.0000 O   0  0  0  0  0  0  0  0  0  0  0  0
    3.8970    2.2500    0.0000 C   0  0  0  0  0  0  0  0  0  0  0  0
   -1.4270    1.9640    0.0000 N   0  0  0  0  0  0  0  0  0  0  0  0
   -2.3080    0.7500    0.0000 C   0  0  0  0  0  0  0  0  0  0  0  0
   -1.4270   -0.4640    0.0000 N   0  0  0  0  0  0  0  0  0  0  0  0
   -1.8900    3.3900    0.0000 C   0  0  0  0  0  0  0  0  0  0  0  0
   -3.3570    3.7020    0.0000 C   0  0  3  0  0  0  0  0  0  0  0  0
   -3.8210    5.1290    0.0000 C   0  0  0  0  0  0  0  0  0  0  0  0
   -5.2880    5.4400    0.0000 O   0  0  0  0  0  0  0  0  0  0  0  0
   -4.3610    2.5870    0.0000 O   0  0  0  0  0  0  0  0  0  0  0  0
  1  2  1  0  0  0  0
  2  3  1  0  0  0  0
  2  8  1  0  0  0  0
  3  4  2  0  0  0  0
  3 13  1  0  0  0  0
  4  5  1  0  0  0  0
  4 11  1  0  0  0  0
  5  6  2  0  0  0  0
  5  7  1  0  0  0  0
  7  8  1  0  0  0  0
  7 10  1  0  0  0  0
  8  9  2  0  0  0  0
 11 12  1  0  0  0  0
 11 14  1  0  0  0  0
 12 13  2  0  0  0  0
 14 15  1  0  0  0  0
 15 16  1  0  0  0  0
 15 18  1  0  0  0  0
 16 17  1  0  0  0  0
M  END
>  <n>
327

>  <SMILES>
O=C1N(C)C(=O)N(c2ncn(c12)CC(O)CO)C

>  <IC50>
>1000

>  <Class>
0

>  <NAME>
DIPROPHYLLINE (DYPHYLLINE)

>  <INCHI_KEY>
KSCFJBIXMNOVSH-UHFFFAOYSA-N

>  <Reference>
Mitigating the inhibition of human Bile Salt Export Pump by drugs_ opportunities provided by physicochemical property modulation,  in-silico modeling and structural modification_SI

$$$$
DISULFIRAM
  MOE2013           2D

 16 15  0  0  0  0  0  0  0  0999 V2000
    0.0000    0.0000    0.0000 C   0  0  0  0  0  0  0  0  0  0  0  0
    0.0000    1.5000    0.0000 C   0  0  0  0  0  0  0  0  0  0  0  0
   -1.2990    2.2500    0.0000 N   0  0  0  0  0  0  0  0  0  0  0  0
   -2.5980    1.5000    0.0000 C   0  0  0  0  0  0  0  0  0  0  0  0
   -2.5980    0.0000    0.0000 C   0  0  0  0  0  0  0  0  0  0  0  0
   -1.2990    3.7500    0.0000 C   0  0  0  0  0  0  0  0  0  0  0  0
    0.0000    4.5000    0.0000 S   0  0  0  0  0  0  0  0  0  0  0  0
   -2.5980    4.5000    0.0000 S   0  0  0  0  0  0  0  0  0  0  0  0
   -2.5980    6.0000    0.0000 S   0  0  0  0  0  0  0  0  0  0  0  0
   -3.8970    6.7500    0.0000 C   0  0  0  0  0  0  0  0  0  0  0  0
   -5.1960    6.0000    0.0000 S   0  0  0  0  0  0  0  0  0  0  0  0
   -3.8970    8.2500    0.0000 N   0  0  0  0  0  0  0  0  0  0  0  0
   -5.1960    9.0000    0.0000 C   0  0  0  0  0  0  0  0  0  0  0  0
   -5.1960   10.5000    0.0000 C   0  0  0  0  0  0  0  0  0  0  0  0
   -2.5980    9.0000    0.0000 C   0  0  0  0  0  0  0  0  0  0  0  0
   -2.5980   10.5000    0.0000 C   0  0  0  0  0  0  0  0  0  0  0  0
  1  2  1  0  0  0  0
  2  3  1  0  0  0  0
  3  4  1  0  0  0  0
  3  6  1  0  0  0  0
  4  5  1  0  0  0  0
  6  7  2  0  0  0  0
  6  8  1  0  0  0  0
  8  9  1  0  0  0  0
  9 10  1  0  0  0  0
 10 11  2  0  0  0  0
 10 12  1  0  0  0  0
 12 13  1  0  0  0  0
 12 15  1  0  0  0  0
 13 14  1  0  0  0  0
 15 16  1  0  0  0  0
M  END
>  <n>
328

>  <SMILES>
S(SC(=S)N(CC)CC)C(=S)N(CC)CC

>  <IC50>
<10

>  <Class>
1

>  <NAME>
DISULFIRAM

>  <INCHI_KEY>
AUZONCFQVSMFAP-UHFFFAOYSA-N

>  <Reference>
Mitigating the inhibition of human Bile Salt Export Pump by drugs_ opportunities provided by physicochemical property modulation,  in-silico modeling and structural modification_SI

$$$$
DITIOCARB
  MOE2013           2D

  8  7  0  0  0  0  0  0  0  0999 V2000
    0.0000    0.0000    0.0000 C   0  0  0  0  0  0  0  0  0  0  0  0
    0.0000    1.5000    0.0000 C   0  0  0  0  0  0  0  0  0  0  0  0
   -1.2990    2.2500    0.0000 N   0  0  0  0  0  0  0  0  0  0  0  0
   -2.5980    1.5000    0.0000 C   0  0  0  0  0  0  0  0  0  0  0  0
   -2.5980    0.0000    0.0000 C   0  0  0  0  0  0  0  0  0  0  0  0
   -1.2990    3.7500    0.0000 C   0  0  0  0  0  0  0  0  0  0  0  0
   -2.5980    4.5000    0.0000 S   0  0  0  0  0  0  0  0  0  0  0  0
    0.0000    4.5000    0.0000 S   0  0  0  0  0  0  0  0  0  0  0  0
  1  2  1  0  0  0  0
  2  3  1  0  0  0  0
  3  4  1  0  0  0  0
  3  6  1  0  0  0  0
  4  5  1  0  0  0  0
  6  7  2  0  0  0  0
  6  8  1  0  0  0  0
M  END
>  <n>
329

>  <SMILES>
SC(=S)N(CC)CC

>  <IC50>
69.26

>  <Class>
0

>  <NAME>
DITIOCARB

>  <INCHI_KEY>
LMBWSYZSUOEYSN-UHFFFAOYSA-N

>  <Reference>
Mitigating the inhibition of human Bile Salt Export Pump by drugs_ opportunities provided by physicochemical property modulation,  in-silico modeling and structural modification_SI

$$$$
DOBUTAMINE
  MOE2013           2D

 22 23  0  0  1  0  0  0  0  0999 V2000
    3.8970   -2.2500    0.0000 C   0  0  0  0  0  0  0  0  0  0  0  0
    2.5980   -3.0000    0.0000 C   0  0  3  0  0  0  0  0  0  0  0  0
    1.2990   -2.2500    0.0000 C   0  0  0  0  0  0  0  0  0  0  0  0
    1.2990   -0.7500    0.0000 C   0  0  0  0  0  0  0  0  0  0  0  0
    0.0000    0.0000    0.0000 C   0  0  0  0  0  0  0  0  0  0  0  0
    0.0000    1.5000    0.0000 C   0  0  0  0  0  0  0  0  0  0  0  0
   -1.2990    2.2500    0.0000 C   0  0  0  0  0  0  0  0  0  0  0  0
   -2.5980    1.5000    0.0000 C   0  0  0  0  0  0  0  0  0  0  0  0
   -2.5980    0.0000    0.0000 C   0  0  0  0  0  0  0  0  0  0  0  0
   -1.2990   -0.7500    0.0000 C   0  0  0  0  0  0  0  0  0  0  0  0
   -3.8970    2.2500    0.0000 O   0  0  0  0  0  0  0  0  0  0  0  0
    2.5980   -4.5000    0.0000 N   0  0  0  0  0  0  0  0  0  0  0  0
    3.8970   -5.2500    0.0000 C   0  0  0  0  0  0  0  0  0  0  0  0
    3.8970   -6.7500    0.0000 C   0  0  0  0  0  0  0  0  0  0  0  0
    5.1960   -7.5000    0.0000 C   0  0  0  0  0  0  0  0  0  0  0  0
    5.1960   -9.0000    0.0000 C   0  0  0  0  0  0  0  0  0  0  0  0
    6.4950   -9.7500    0.0000 C   0  0  0  0  0  0  0  0  0  0  0  0
    7.7940   -9.0000    0.0000 C   0  0  0  0  0  0  0  0  0  0  0  0
    7.7940   -7.5000    0.0000 C   0  0  0  0  0  0  0  0  0  0  0  0
    6.4950   -6.7500    0.0000 C   0  0  0  0  0  0  0  0  0  0  0  0
    9.0930   -6.7500    0.0000 O   0  0  0  0  0  0  0  0  0  0  0  0
    9.0930   -9.7500    0.0000 O   0  0  0  0  0  0  0  0  0  0  0  0
  1  2  1  0  0  0  0
  2  3  1  0  0  0  0
  2 12  1  0  0  0  0
  3  4  1  0  0  0  0
  4  5  1  0  0  0  0
  5  6  1  0  0  0  0
  5 10  2  0  0  0  0
  6  7  2  0  0  0  0
  7  8  1  0  0  0  0
  8  9  2  0  0  0  0
  8 11  1  0  0  0  0
  9 10  1  0  0  0  0
 12 13  1  0  0  0  0
 13 14  1  0  0  0  0
 14 15  1  0  0  0  0
 15 16  1  0  0  0  0
 15 20  2  0  0  0  0
 16 17  2  0  0  0  0
 17 18  1  0  0  0  0
 18 19  2  0  0  0  0
 18 22  1  0  0  0  0
 19 20  1  0  0  0  0
 19 21  1  0  0  0  0
M  END
>  <n>
330

>  <SMILES>
Oc1cc(ccc1O)CCNC(CCc1ccc(O)cc1)C

>  <IC50>
>1000

>  <Class>
0

>  <NAME>
DOBUTAMINE

>  <INCHI_KEY>
JRWZLRBJNMZMFE-UHFFFAOYSA-N

>  <Reference>
Mitigating the inhibition of human Bile Salt Export Pump by drugs_ opportunities provided by physicochemical property modulation,  in-silico modeling and structural modification_SI

$$$$
DOCOSANOL
  MOE2013           2D

 23 22  0  0  0  0  0  0  0  0999 V2000
    0.0000    0.0000    0.0000 C   0  0  0  0  0  0  0  0  0  0  0  0
    0.0000    1.5000    0.0000 C   0  0  0  0  0  0  0  0  0  0  0  0
   -1.2990    2.2500    0.0000 C   0  0  0  0  0  0  0  0  0  0  0  0
   -1.2990    3.7500    0.0000 C   0  0  0  0  0  0  0  0  0  0  0  0
   -2.5980    4.5000    0.0000 C   0  0  0  0  0  0  0  0  0  0  0  0
   -2.5980    6.0000    0.0000 C   0  0  0  0  0  0  0  0  0  0  0  0
   -3.8970    6.7500    0.0000 C   0  0  0  0  0  0  0  0  0  0  0  0
   -3.8970    8.2500    0.0000 C   0  0  0  0  0  0  0  0  0  0  0  0
   -5.1960    9.0000    0.0000 C   0  0  0  0  0  0  0  0  0  0  0  0
   -5.1960   10.5000    0.0000 C   0  0  0  0  0  0  0  0  0  0  0  0
   -6.4950   11.2500    0.0000 C   0  0  0  0  0  0  0  0  0  0  0  0
   -6.4950   12.7500    0.0000 C   0  0  0  0  0  0  0  0  0  0  0  0
   -7.7940   13.5000    0.0000 C   0  0  0  0  0  0  0  0  0  0  0  0
   -7.7940   15.0000    0.0000 C   0  0  0  0  0  0  0  0  0  0  0  0
   -9.0930   15.7500    0.0000 C   0  0  0  0  0  0  0  0  0  0  0  0
   -9.0930   17.2500    0.0000 C   0  0  0  0  0  0  0  0  0  0  0  0
  -10.3920   18.0000    0.0000 C   0  0  0  0  0  0  0  0  0  0  0  0
  -10.3920   19.5000    0.0000 C   0  0  0  0  0  0  0  0  0  0  0  0
  -11.6910   20.2500    0.0000 C   0  0  0  0  0  0  0  0  0  0  0  0
  -11.6910   21.7500    0.0000 C   0  0  0  0  0  0  0  0  0  0  0  0
  -12.9900   22.5000    0.0000 C   0  0  0  0  0  0  0  0  0  0  0  0
  -12.9900   24.0000    0.0000 C   0  0  0  0  0  0  0  0  0  0  0  0
  -14.2890   24.7500    0.0000 O   0  0  0  0  0  0  0  0  0  0  0  0
  1  2  1  0  0  0  0
  2  3  1  0  0  0  0
  3  4  1  0  0  0  0
  4  5  1  0  0  0  0
  5  6  1  0  0  0  0
  6  7  1  0  0  0  0
  7  8  1  0  0  0  0
  8  9  1  0  0  0  0
  9 10  1  0  0  0  0
 10 11  1  0  0  0  0
 11 12  1  0  0  0  0
 12 13  1  0  0  0  0
 13 14  1  0  0  0  0
 14 15  1  0  0  0  0
 15 16  1  0  0  0  0
 16 17  1  0  0  0  0
 17 18  1  0  0  0  0
 18 19  1  0  0  0  0
 19 20  1  0  0  0  0
 20 21  1  0  0  0  0
 21 22  1  0  0  0  0
 22 23  1  0  0  0  0
M  END
>  <n>
331

>  <SMILES>
OCCCCCCCCCCCCCCCCCCCCCC

>  <IC50>
>1000

>  <Class>
0

>  <NAME>
DOCOSANOL

>  <INCHI_KEY>
NOPFSRXAKWQILS-UHFFFAOYSA-N

>  <Reference>
Mitigating the inhibition of human Bile Salt Export Pump by drugs_ opportunities provided by physicochemical property modulation,  in-silico modeling and structural modification_SI

$$$$
DOFETILIDE
  MOE2013           2D

 29 30  0  0  1  0  0  0  0  0999 V2000
    1.2990   -5.2500    0.0000 C   0  0  0  0  0  0  0  0  0  0  0  0
    2.5980   -4.5000    0.0000 N   0  0  3  0  0  0  0  0  0  0  0  0
    3.8970   -5.2500    0.0000 C   0  0  0  0  0  0  0  0  0  0  0  0
    3.8970   -6.7500    0.0000 C   0  0  0  0  0  0  0  0  0  0  0  0
    5.1960   -7.5000    0.0000 C   0  0  0  0  0  0  0  0  0  0  0  0
    5.1960   -9.0000    0.0000 C   0  0  0  0  0  0  0  0  0  0  0  0
    6.4950   -9.7500    0.0000 C   0  0  0  0  0  0  0  0  0  0  0  0
    7.7940   -9.0000    0.0000 C   0  0  0  0  0  0  0  0  0  0  0  0
    7.7940   -7.5000    0.0000 C   0  0  0  0  0  0  0  0  0  0  0  0
    6.4950   -6.7500    0.0000 C   0  0  0  0  0  0  0  0  0  0  0  0
    9.0930   -9.7500    0.0000 N   0  0  0  0  0  0  0  0  0  0  0  0
    9.0930  -11.2500    0.0000 S   0  0  0  0  0  0  0  0  0  0  0  0
   10.3920  -12.0000    0.0000 O   0  0  0  0  0  0  0  0  0  0  0  0
    7.6160  -10.9900    0.0000 O   0  0  0  0  0  0  0  0  0  0  0  0
    8.5800  -12.6600    0.0000 C   0  0  0  0  0  0  0  0  0  0  0  0
    2.5980   -3.0000    0.0000 C   0  0  0  0  0  0  0  0  0  0  0  0
    1.2990   -2.2500    0.0000 C   0  0  0  0  0  0  0  0  0  0  0  0
    1.2990   -0.7500    0.0000 O   0  0  0  0  0  0  0  0  0  0  0  0
    0.0000    0.0000    0.0000 C   0  0  0  0  0  0  0  0  0  0  0  0
    0.0000    1.5000    0.0000 C   0  0  0  0  0  0  0  0  0  0  0  0
   -1.2990    2.2500    0.0000 C   0  0  0  0  0  0  0  0  0  0  0  0
   -2.5980    1.5000    0.0000 C   0  0  0  0  0  0  0  0  0  0  0  0
   -2.5980    0.0000    0.0000 C   0  0  0  0  0  0  0  0  0  0  0  0
   -1.2990   -0.7500    0.0000 C   0  0  0  0  0  0  0  0  0  0  0  0
   -3.8970    2.2500    0.0000 N   0  0  0  0  0  0  0  0  0  0  0  0
   -3.8970    3.7500    0.0000 S   0  0  0  0  0  0  0  0  0  0  0  0
   -5.1960    4.5000    0.0000 O   0  0  0  0  0  0  0  0  0  0  0  0
   -2.4200    3.4900    0.0000 O   0  0  0  0  0  0  0  0  0  0  0  0
   -3.3840    5.1600    0.0000 C   0  0  0  0  0  0  0  0  0  0  0  0
  1  2  1  0  0  0  0
  2  3  1  0  0  0  0
  2 16  1  0  0  0  0
  3  4  1  0  0  0  0
  4  5  1  0  0  0  0
  5  6  1  0  0  0  0
  5 10  2  0  0  0  0
  6  7  2  0  0  0  0
  7  8  1  0  0  0  0
  8  9  2  0  0  0  0
  8 11  1  0  0  0  0
  9 10  1  0  0  0  0
 11 12  1  0  0  0  0
 12 13  2  0  0  0  0
 12 14  2  0  0  0  0
 12 15  1  0  0  0  0
 16 17  1  0  0  0  0
 17 18  1  0  0  0  0
 18 19  1  0  0  0  0
 19 20  1  0  0  0  0
 19 24  2  0  0  0  0
 20 21  2  0  0  0  0
 21 22  1  0  0  0  0
 22 23  2  0  0  0  0
 22 25  1  0  0  0  0
 23 24  1  0  0  0  0
 25 26  1  0  0  0  0
 26 27  2  0  0  0  0
 26 28  2  0  0  0  0
 26 29  1  0  0  0  0
M  END
>  <n>
332

>  <SMILES>
S(=O)(=O)(Nc1ccc(cc1)CCN(CCOc1ccc(NS(=O)(=O)C)cc1)C)C

>  <IC50>
708.4

>  <Class>
0

>  <NAME>
DOFETILIDE

>  <INCHI_KEY>
IXTMWRCNAAVVAI-UHFFFAOYSA-N

>  <Reference>
Mitigating the inhibition of human Bile Salt Export Pump by drugs_ opportunities provided by physicochemical property modulation,  in-silico modeling and structural modification_SI

$$$$
DONEPEZIL
  MOE2013           2D

 28 31  0  0  1  0  0  0  0  0999 V2000
    5.1960    0.0000    0.0000 C   0  0  0  0  0  0  0  0  0  0  0  0
    3.8970   -0.7500    0.0000 O   0  0  0  0  0  0  0  0  0  0  0  0
    2.5980    0.0000    0.0000 C   0  0  0  0  0  0  0  0  0  0  0  0
    1.2990   -0.7500    0.0000 C   0  0  0  0  0  0  0  0  0  0  0  0
    0.0000    0.0000    0.0000 C   0  0  0  0  0  0  0  0  0  0  0  0
    0.0000    1.5000    0.0000 C   0  0  0  0  0  0  0  0  0  0  0  0
    1.2990    2.2500    0.0000 C   0  0  0  0  0  0  0  0  0  0  0  0
    2.5980    1.5000    0.0000 C   0  0  0  0  0  0  0  0  0  0  0  0
    3.8970    2.2500    0.0000 O   0  0  0  0  0  0  0  0  0  0  0  0
    5.1960    1.5000    0.0000 C   0  0  0  0  0  0  0  0  0  0  0  0
   -1.4270    1.9640    0.0000 C   0  0  0  0  0  0  0  0  0  0  0  0
   -1.8900    3.3900    0.0000 O   0  0  0  0  0  0  0  0  0  0  0  0
   -2.3080    0.7500    0.0000 C   0  0  3  0  0  0  0  0  0  0  0  0
   -1.4270   -0.4640    0.0000 C   0  0  0  0  0  0  0  0  0  0  0  0
   -3.8080    0.7500    0.0000 C   0  0  0  0  0  0  0  0  0  0  0  0
   -4.5580   -0.5490    0.0000 C   0  0  0  0  0  0  0  0  0  0  0  0
   -6.0580   -0.5490    0.0000 C   0  0  0  0  0  0  0  0  0  0  0  0
   -6.8080   -1.8480    0.0000 C   0  0  0  0  0  0  0  0  0  0  0  0
   -6.0580   -3.1470    0.0000 N   0  0  0  0  0  0  0  0  0  0  0  0
   -4.5580   -3.1470    0.0000 C   0  0  0  0  0  0  0  0  0  0  0  0
   -3.8080   -1.8480    0.0000 C   0  0  0  0  0  0  0  0  0  0  0  0
   -6.8080   -4.4460    0.0000 C   0  0  0  0  0  0  0  0  0  0  0  0
   -8.3080   -4.4460    0.0000 C   0  0  0  0  0  0  0  0  0  0  0  0
   -9.0580   -3.1470    0.0000 C   0  0  0  0  0  0  0  0  0  0  0  0
  -10.5580   -3.1470    0.0000 C   0  0  0  0  0  0  0  0  0  0  0  0
  -11.3080   -4.4460    0.0000 C   0  0  0  0  0  0  0  0  0  0  0  0
  -10.5580   -5.7450    0.0000 C   0  0  0  0  0  0  0  0  0  0  0  0
   -9.0580   -5.7450    0.0000 C   0  0  0  0  0  0  0  0  0  0  0  0
  1  2  1  0  0  0  0
  2  3  1  0  0  0  0
  3  4  1  0  0  0  0
  3  8  2  0  0  0  0
  4  5  2  0  0  0  0
  5  6  1  0  0  0  0
  5 14  1  0  0  0  0
  6  7  2  0  0  0  0
  6 11  1  0  0  0  0
  7  8  1  0  0  0  0
  8  9  1  0  0  0  0
  9 10  1  0  0  0  0
 11 12  2  0  0  0  0
 11 13  1  0  0  0  0
 13 14  1  0  0  0  0
 13 15  1  0  0  0  0
 15 16  1  0  0  0  0
 16 17  1  0  0  0  0
 16 21  1  0  0  0  0
 17 18  1  0  0  0  0
 18 19  1  0  0  0  0
 19 20  1  0  0  0  0
 19 22  1  0  0  0  0
 20 21  1  0  0  0  0
 22 23  1  0  0  0  0
 23 24  1  0  0  0  0
 23 28  2  0  0  0  0
 24 25  2  0  0  0  0
 25 26  1  0  0  0  0
 26 27  2  0  0  0  0
 27 28  1  0  0  0  0
M  END
>  <n>
333

>  <SMILES>
O(C)c1cc2c(CC(CC3CCN(CC3)Cc3ccccc3)C2=O)cc1OC

>  <IC50>
145.6

>  <Class>
0

>  <NAME>
DONEPEZIL

>  <INCHI_KEY>
ADEBPBSSDYVVLD-UHFFFAOYSA-N

>  <Reference>
Mitigating, Dawson

$$$$
DOPAMINE
  MOE2013           2D

 11 11  0  0  0  0  0  0  0  0999 V2000
    0.0000    0.0000    0.0000 C   0  0  0  0  0  0  0  0  0  0  0  0
    0.0000    1.5000    0.0000 C   0  0  0  0  0  0  0  0  0  0  0  0
   -1.2990    2.2500    0.0000 C   0  0  0  0  0  0  0  0  0  0  0  0
   -2.5980    1.5000    0.0000 C   0  0  0  0  0  0  0  0  0  0  0  0
   -2.5980    0.0000    0.0000 C   0  0  0  0  0  0  0  0  0  0  0  0
   -1.2990   -0.7500    0.0000 C   0  0  0  0  0  0  0  0  0  0  0  0
   -1.2990   -2.2500    0.0000 C   0  0  0  0  0  0  0  0  0  0  0  0
    0.0000   -3.0000    0.0000 C   0  0  0  0  0  0  0  0  0  0  0  0
    0.0000   -4.5000    0.0000 N   0  0  0  0  0  0  0  0  0  0  0  0
   -3.8970    2.2500    0.0000 O   0  0  0  0  0  0  0  0  0  0  0  0
   -1.2990    3.7500    0.0000 O   0  0  0  0  0  0  0  0  0  0  0  0
  1  2  1  0  0  0  0
  1  6  2  0  0  0  0
  2  3  2  0  0  0  0
  3  4  1  0  0  0  0
  3 11  1  0  0  0  0
  4  5  2  0  0  0  0
  4 10  1  0  0  0  0
  5  6  1  0  0  0  0
  6  7  1  0  0  0  0
  7  8  1  0  0  0  0
  8  9  1  0  0  0  0
M  END
>  <n>
334

>  <SMILES>
Oc1cc(ccc1O)CCN

>  <IC50>
>1000

>  <Class>
0

>  <NAME>
DOPAMINE

>  <INCHI_KEY>
VYFYYTLLBUKUHU-UHFFFAOYSA-N

>  <Reference>
Mitigating, Dawson

$$$$
DOPEXAMINE
  MOE2013           2D

 26 27  0  0  0  0  0  0  0  0999 V2000
    0.0000    0.0000    0.0000 C   0  0  0  0  0  0  0  0  0  0  0  0
    0.0000    1.5000    0.0000 C   0  0  0  0  0  0  0  0  0  0  0  0
   -1.2990    2.2500    0.0000 C   0  0  0  0  0  0  0  0  0  0  0  0
   -2.5980    1.5000    0.0000 C   0  0  0  0  0  0  0  0  0  0  0  0
   -2.5980    0.0000    0.0000 C   0  0  0  0  0  0  0  0  0  0  0  0
   -1.2990   -0.7500    0.0000 C   0  0  0  0  0  0  0  0  0  0  0  0
   -3.8970    2.2500    0.0000 C   0  0  0  0  0  0  0  0  0  0  0  0
   -5.1960    1.5000    0.0000 C   0  0  0  0  0  0  0  0  0  0  0  0
   -6.4950    2.2500    0.0000 N   0  0  0  0  0  0  0  0  0  0  0  0
   -7.7940    1.5000    0.0000 C   0  0  0  0  0  0  0  0  0  0  0  0
   -9.0930    2.2500    0.0000 C   0  0  0  0  0  0  0  0  0  0  0  0
  -10.3920    1.5000    0.0000 C   0  0  0  0  0  0  0  0  0  0  0  0
  -11.6910    2.2500    0.0000 C   0  0  0  0  0  0  0  0  0  0  0  0
  -12.9900    1.5000    0.0000 C   0  0  0  0  0  0  0  0  0  0  0  0
  -14.2890    2.2500    0.0000 C   0  0  0  0  0  0  0  0  0  0  0  0
  -15.5880    1.5000    0.0000 N   0  0  0  0  0  0  0  0  0  0  0  0
  -16.8880    2.2500    0.0000 C   0  0  0  0  0  0  0  0  0  0  0  0
  -18.1860    1.5000    0.0000 C   0  0  0  0  0  0  0  0  0  0  0  0
  -19.4860    2.2500    0.0000 C   0  0  0  0  0  0  0  0  0  0  0  0
  -19.4860    3.7500    0.0000 C   0  0  0  0  0  0  0  0  0  0  0  0
  -20.7850    4.5000    0.0000 C   0  0  0  0  0  0  0  0  0  0  0  0
  -22.0840    3.7500    0.0000 C   0  0  0  0  0  0  0  0  0  0  0  0
  -22.0840    2.2500    0.0000 C   0  0  0  0  0  0  0  0  0  0  0  0
  -20.7850    1.5000    0.0000 C   0  0  0  0  0  0  0  0  0  0  0  0
  -23.3830    1.5000    0.0000 O   0  0  0  0  0  0  0  0  0  0  0  0
  -23.3830    4.5000    0.0000 O   0  0  0  0  0  0  0  0  0  0  0  0
  1  2  1  0  0  0  0
  1  6  2  0  0  0  0
  2  3  2  0  0  0  0
  3  4  1  0  0  0  0
  4  5  2  0  0  0  0
  4  7  1  0  0  0  0
  5  6  1  0  0  0  0
  7  8  1  0  0  0  0
  8  9  1  0  0  0  0
  9 10  1  0  0  0  0
 10 11  1  0  0  0  0
 11 12  1  0  0  0  0
 12 13  1  0  0  0  0
 13 14  1  0  0  0  0
 14 15  1  0  0  0  0
 15 16  1  0  0  0  0
 16 17  1  0  0  0  0
 17 18  1  0  0  0  0
 18 19  1  0  0  0  0
 19 20  1  0  0  0  0
 19 24  2  0  0  0  0
 20 21  2  0  0  0  0
 21 22  1  0  0  0  0
 22 23  2  0  0  0  0
 22 26  1  0  0  0  0
 23 24  1  0  0  0  0
 23 25  1  0  0  0  0
M  END
>  <n>
335

>  <SMILES>
Oc1cc(ccc1O)CCNCCCCCCNCCc1ccccc1

>  <IC50>
>1000

>  <Class>
0

>  <NAME>
DOPEXAMINE

>  <INCHI_KEY>
RYBJORHCUPVNMB-UHFFFAOYSA-N

>  <Reference>
Mitigating the inhibition of human Bile Salt Export Pump by drugs_ opportunities provided by physicochemical property modulation,  in-silico modeling and structural modification_SI

$$$$
DOXYLAMINE
  MOE2013           2D

 20 21  0  0  1  0  0  0  0  0999 V2000
    2.7760   -1.0100    0.0000 C   0  0  0  0  0  0  0  0  0  0  0  0
    1.2990   -0.7500    0.0000 C   0  0  3  0  0  0  0  0  0  0  0  0
    0.0000    0.0000    0.0000 C   0  0  0  0  0  0  0  0  0  0  0  0
    0.0000    1.5000    0.0000 C   0  0  0  0  0  0  0  0  0  0  0  0
   -1.2990    2.2500    0.0000 C   0  0  0  0  0  0  0  0  0  0  0  0
   -2.5980    1.5000    0.0000 C   0  0  0  0  0  0  0  0  0  0  0  0
   -2.5980    0.0000    0.0000 C   0  0  0  0  0  0  0  0  0  0  0  0
   -1.2990   -0.7500    0.0000 C   0  0  0  0  0  0  0  0  0  0  0  0
    1.8120    0.6600    0.0000 C   0  0  0  0  0  0  0  0  0  0  0  0
    3.2890    0.9200    0.0000 C   0  0  0  0  0  0  0  0  0  0  0  0
    3.8020    2.3300    0.0000 C   0  0  0  0  0  0  0  0  0  0  0  0
    2.8380    3.4790    0.0000 C   0  0  0  0  0  0  0  0  0  0  0  0
    1.3610    3.2180    0.0000 C   0  0  0  0  0  0  0  0  0  0  0  0
    0.8480    1.8090    0.0000 N   0  0  0  0  0  0  0  0  0  0  0  0
    1.2990   -2.2500    0.0000 O   0  0  0  0  0  0  0  0  0  0  0  0
    2.5980   -3.0000    0.0000 C   0  0  0  0  0  0  0  0  0  0  0  0
    2.5980   -4.5000    0.0000 C   0  0  0  0  0  0  0  0  0  0  0  0
    3.8970   -5.2500    0.0000 N   0  0  0  0  0  0  0  0  0  0  0  0
    3.8970   -6.7500    0.0000 C   0  0  0  0  0  0  0  0  0  0  0  0
    5.1960   -4.5000    0.0000 C   0  0  0  0  0  0  0  0  0  0  0  0
  1  2  1  0  0  0  0
  2  3  1  0  0  0  0
  2  9  1  0  0  0  0
  2 15  1  0  0  0  0
  3  4  1  0  0  0  0
  3  8  2  0  0  0  0
  4  5  2  0  0  0  0
  5  6  1  0  0  0  0
  6  7  2  0  0  0  0
  7  8  1  0  0  0  0
  9 10  1  0  0  0  0
  9 14  2  0  0  0  0
 10 11  2  0  0  0  0
 11 12  1  0  0  0  0
 12 13  2  0  0  0  0
 13 14  1  0  0  0  0
 15 16  1  0  0  0  0
 16 17  1  0  0  0  0
 17 18  1  0  0  0  0
 18 19  1  0  0  0  0
 18 20  1  0  0  0  0
M  END
>  <n>
336

>  <SMILES>
O(C(C)(c1ccccc1)c1ncccc1)CCN(C)C

>  <IC50>
>1000

>  <Class>
0

>  <NAME>
DOXYLAMINE

>  <INCHI_KEY>
HCFDWZZGGLSKEP-UHFFFAOYSA-N

>  <Reference>
Mitigating the inhibition of human Bile Salt Export Pump by drugs_ opportunities provided by physicochemical property modulation,  in-silico modeling and structural modification_SI

$$$$
DROPERIDOL
  MOE2013           2D

 28 31  0  0  1  0  0  0  0  0999 V2000
    2.5980    1.5000    0.0000 C   0  0  0  0  0  0  0  0  0  0  0  0
    2.5980    0.0000    0.0000 C   0  0  0  0  0  0  0  0  0  0  0  0
    1.2990   -0.7500    0.0000 C   0  0  0  0  0  0  0  0  0  0  0  0
    0.0000    0.0000    0.0000 C   0  0  0  0  0  0  0  0  0  0  0  0
    0.0000    1.5000    0.0000 C   0  0  0  0  0  0  0  0  0  0  0  0
    1.2990    2.2500    0.0000 C   0  0  0  0  0  0  0  0  0  0  0  0
   -1.4270    1.9640    0.0000 N   0  0  0  0  0  0  0  0  0  0  0  0
   -2.3080    0.7500    0.0000 C   0  0  0  0  0  0  0  0  0  0  0  0
   -3.8080    0.7500    0.0000 O   0  0  0  0  0  0  0  0  0  0  0  0
   -1.4270   -0.4640    0.0000 N   0  0  0  0  0  0  0  0  0  0  0  0
   -1.8900   -1.8900    0.0000 C   0  0  0  0  0  0  0  0  0  0  0  0
   -3.3570   -2.2020    0.0000 C   0  0  0  0  0  0  0  0  0  0  0  0
   -3.8210   -3.6290    0.0000 C   0  0  0  0  0  0  0  0  0  0  0  0
   -2.8170   -4.7430    0.0000 N   0  0  3  0  0  0  0  0  0  0  0  0
   -1.3500   -4.4310    0.0000 C   0  0  0  0  0  0  0  0  0  0  0  0
   -0.8860   -3.0050    0.0000 C   0  0  0  0  0  0  0  0  0  0  0  0
   -3.2810   -6.1700    0.0000 C   0  0  0  0  0  0  0  0  0  0  0  0
   -4.7480   -6.4820    0.0000 C   0  0  0  0  0  0  0  0  0  0  0  0
   -5.2110   -7.9080    0.0000 C   0  0  0  0  0  0  0  0  0  0  0  0
   -6.6790   -8.2200    0.0000 C   0  0  0  0  0  0  0  0  0  0  0  0
   -7.6820   -7.1060    0.0000 O   0  0  0  0  0  0  0  0  0  0  0  0
   -7.1420   -9.6470    0.0000 C   0  0  0  0  0  0  0  0  0  0  0  0
   -8.6090   -9.9590    0.0000 C   0  0  0  0  0  0  0  0  0  0  0  0
   -9.0730  -11.3850    0.0000 C   0  0  0  0  0  0  0  0  0  0  0  0
   -8.0690  -12.5000    0.0000 C   0  0  0  0  0  0  0  0  0  0  0  0
   -6.6020  -12.1880    0.0000 C   0  0  0  0  0  0  0  0  0  0  0  0
   -6.1380  -10.7620    0.0000 C   0  0  0  0  0  0  0  0  0  0  0  0
   -8.5330  -13.9260    0.0000 F   0  0  0  0  0  0  0  0  0  0  0  0
  1  2  1  0  0  0  0
  1  6  2  0  0  0  0
  2  3  2  0  0  0  0
  3  4  1  0  0  0  0
  4  5  2  0  0  0  0
  4 10  1  0  0  0  0
  5  6  1  0  0  0  0
  5  7  1  0  0  0  0
  7  8  1  0  0  0  0
  8  9  2  0  0  0  0
  8 10  1  0  0  0  0
 10 11  1  0  0  0  0
 11 12  2  0  0  0  0
 11 16  1  0  0  0  0
 12 13  1  0  0  0  0
 13 14  1  0  0  0  0
 14 15  1  0  0  0  0
 14 17  1  0  0  0  0
 15 16  1  0  0  0  0
 17 18  1  0  0  0  0
 18 19  1  0  0  0  0
 19 20  1  0  0  0  0
 20 21  2  0  0  0  0
 20 22  1  0  0  0  0
 22 23  1  0  0  0  0
 22 27  2  0  0  0  0
 23 24  2  0  0  0  0
 24 25  1  0  0  0  0
 25 26  2  0  0  0  0
 25 28  1  0  0  0  0
 26 27  1  0  0  0  0
M  END
>  <n>
337

>  <SMILES>
Fc1ccc(cc1)C(=O)CCCN1CCC(N2c3c(NC2=O)cccc3)=CC1

>  <IC50>
<10

>  <Class>
1

>  <NAME>
DROPERIDOL

>  <INCHI_KEY>
RMEDXOLNCUSCGS-UHFFFAOYSA-N

>  <Reference>
Mitigating the inhibition of human Bile Salt Export Pump by drugs_ opportunities provided by physicochemical property modulation,  in-silico modeling and structural modification_SI

$$$$
DYCLONINE
  MOE2013           2D

 21 22  0  0  0  0  0  0  0  0999 V2000
    3.8970   -5.2500    0.0000 C   0  0  0  0  0  0  0  0  0  0  0  0
    2.5980   -4.5000    0.0000 C   0  0  0  0  0  0  0  0  0  0  0  0
    2.5980   -3.0000    0.0000 C   0  0  0  0  0  0  0  0  0  0  0  0
    1.2990   -2.2500    0.0000 C   0  0  0  0  0  0  0  0  0  0  0  0
    1.2990   -0.7500    0.0000 O   0  0  0  0  0  0  0  0  0  0  0  0
    0.0000    0.0000    0.0000 C   0  0  0  0  0  0  0  0  0  0  0  0
    0.0000    1.5000    0.0000 C   0  0  0  0  0  0  0  0  0  0  0  0
   -1.2990    2.2500    0.0000 C   0  0  0  0  0  0  0  0  0  0  0  0
   -2.5980    1.5000    0.0000 C   0  0  0  0  0  0  0  0  0  0  0  0
   -2.5980    0.0000    0.0000 C   0  0  0  0  0  0  0  0  0  0  0  0
   -1.2990   -0.7500    0.0000 C   0  0  0  0  0  0  0  0  0  0  0  0
   -3.8970    2.2500    0.0000 C   0  0  0  0  0  0  0  0  0  0  0  0
   -5.1960    1.5000    0.0000 O   0  0  0  0  0  0  0  0  0  0  0  0
   -3.8970    3.7500    0.0000 C   0  0  0  0  0  0  0  0  0  0  0  0
   -5.1960    4.5000    0.0000 C   0  0  0  0  0  0  0  0  0  0  0  0
   -5.1960    6.0000    0.0000 N   0  0  0  0  0  0  0  0  0  0  0  0
   -3.8970    6.7500    0.0000 C   0  0  0  0  0  0  0  0  0  0  0  0
   -3.8970    8.2500    0.0000 C   0  0  0  0  0  0  0  0  0  0  0  0
   -5.1960    9.0000    0.0000 C   0  0  0  0  0  0  0  0  0  0  0  0
   -6.4950    8.2500    0.0000 C   0  0  0  0  0  0  0  0  0  0  0  0
   -6.4950    6.7500    0.0000 C   0  0  0  0  0  0  0  0  0  0  0  0
  1  2  1  0  0  0  0
  2  3  1  0  0  0  0
  3  4  1  0  0  0  0
  4  5  1  0  0  0  0
  5  6  1  0  0  0  0
  6  7  1  0  0  0  0
  6 11  2  0  0  0  0
  7  8  2  0  0  0  0
  8  9  1  0  0  0  0
  9 10  2  0  0  0  0
  9 12  1  0  0  0  0
 10 11  1  0  0  0  0
 12 13  2  0  0  0  0
 12 14  1  0  0  0  0
 14 15  1  0  0  0  0
 15 16  1  0  0  0  0
 16 17  1  0  0  0  0
 16 21  1  0  0  0  0
 17 18  1  0  0  0  0
 18 19  1  0  0  0  0
 19 20  1  0  0  0  0
 20 21  1  0  0  0  0
M  END
>  <n>
338

>  <SMILES>
O(CCCC)c1ccc(cc1)C(=O)CCN1CCCCC1

>  <IC50>
275.4

>  <Class>
0

>  <NAME>
DYCLONINE

>  <INCHI_KEY>
BZEWSEKUUPWQDQ-UHFFFAOYSA-N

>  <Reference>
Mitigating the inhibition of human Bile Salt Export Pump by drugs_ opportunities provided by physicochemical property modulation,  in-silico modeling and structural modification_SI

$$$$
D_Penicillamine
  MOE2013           2D

  9  8  0  0  1  0  0  0  0  0999 V2000
   -2.5980    1.5000    0.0000 N   0  0  0  0  0  0  0  0  0  0  0  0
   -1.2990    2.2500    0.0000 C   0  0  3  0  0  0  0  0  0  0  0  0
    0.0000    1.5000    0.0000 C   0  0  0  0  0  0  0  0  0  0  0  0
    0.0000    0.0000    0.0000 C   0  0  0  0  0  0  0  0  0  0  0  0
    1.4770    1.2400    0.0000 C   0  0  0  0  0  0  0  0  0  0  0  0
    0.5130    2.9100    0.0000 S   0  0  0  0  0  0  0  0  0  0  0  0
   -1.2990    3.7500    0.0000 C   0  0  0  0  0  0  0  0  0  0  0  0
   -2.5980    4.5000    0.0000 O   0  0  0  0  0  0  0  0  0  0  0  0
    0.0000    4.5000    0.0000 O   0  0  0  0  0  0  0  0  0  0  0  0
  1  2  1  0  0  0  0
  2  3  1  0  0  0  0
  2  7  1  0  0  0  0
  3  4  1  0  0  0  0
  3  5  1  0  0  0  0
  3  6  1  0  0  0  0
  7  8  2  0  0  0  0
  7  9  1  0  0  0  0
M  END
>  <n>
26

>  <IC50>
>1000

>  <Class>
0

>  <NAME>
D_PENICILLAMINE

>  <INCHI_KEY>
MQXQVCLAUDMCEF-CWLIKTDRSA-N

>  <Reference>
Dawson

$$$$
Dexamethasone
  MOE2013           2D

 28 31  0  0  1  0  0  0  0  0999 V2000
    1.2550   -3.6730    0.0000 C   0  0  0  0  0  0  0  0  0  0  0  0
    0.5050   -2.3740    0.0000 C   0  0  3  0  0  0  0  0  0  0  0  0
    1.1150   -1.0040    0.0000 C   0  0  0  0  0  0  0  0  0  0  0  0
    0.0000    0.0000    0.0000 C   0  0  3  0  0  0  0  0  0  0  0  0
    0.0000    1.5000    0.0000 C   0  0  3  0  0  0  0  0  0  0  0  0
    1.2990    2.2500    0.0000 C   0  0  0  0  0  0  0  0  0  0  0  0
    1.2990    3.7500    0.0000 C   0  0  0  0  0  0  0  0  0  0  0  0
    0.0000    4.5000    0.0000 C   0  0  0  0  0  0  0  0  0  0  0  0
    0.0000    6.0000    0.0000 C   0  0  0  0  0  0  0  0  0  0  0  0
   -1.2990    6.7500    0.0000 C   0  0  0  0  0  0  0  0  0  0  0  0
   -1.2990    8.2500    0.0000 O   0  0  0  0  0  0  0  0  0  0  0  0
   -2.5980    6.0000    0.0000 C   0  0  0  0  0  0  0  0  0  0  0  0
   -2.5980    4.5000    0.0000 C   0  0  0  0  0  0  0  0  0  0  0  0
   -1.2990    3.7500    0.0000 C   0  0  2  0  0  0  0  0  0  0  0  0
   -1.2990    2.2500    0.0000 C   0  0  1  0  0  0  0  0  0  0  0  0
   -2.5980    1.5000    0.0000 C   0  0  3  0  0  0  0  0  0  0  0  0
   -2.5980    0.0000    0.0000 C   0  0  0  0  0  0  0  0  0  0  0  0
   -1.2990   -0.7500    0.0000 C   0  0  2  0  0  0  0  0  0  0  0  0
   -0.9870   -2.2170    0.0000 C   0  0  1  0  0  0  0  0  0  0  0  0
   -2.4790   -2.3740    0.0000 C   0  0  0  0  0  0  0  0  0  0  0  0
   -3.3610   -1.1600    0.0000 O   0  0  0  0  0  0  0  0  0  0  0  0
   -3.0890   -3.7440    0.0000 C   0  0  0  0  0  0  0  0  0  0  0  0
   -2.2070   -4.9580    0.0000 O   0  0  0  0  0  0  0  0  0  0  0  0
   -0.9870   -3.7170    0.0000 O   0  0  0  0  0  0  0  0  0  0  0  0
   -2.5130   -1.6320    0.0000 C   0  0  0  0  0  0  0  0  0  0  0  0
   -3.8970    2.2500    0.0000 O   0  0  0  0  0  0  0  0  0  0  0  0
   -2.5980    3.0000    0.0000 F   0  0  0  0  0  0  0  0  0  0  0  0
   -2.5980    3.0000    0.0000 C   0  0  0  0  0  0  0  0  0  0  0  0
  1  2  1  0  0  0  0
  2  3  1  0  0  0  0
  2 19  1  0  0  0  0
  3  4  1  0  0  0  0
  4  5  1  0  0  0  0
  4 18  1  0  0  0  0
  5  6  1  0  0  0  0
  5 15  1  0  0  0  0
  6  7  1  0  0  0  0
  7  8  1  0  0  0  0
  8  9  2  0  0  0  0
  8 14  1  0  0  0  0
  9 10  1  0  0  0  0
 10 11  2  0  0  0  0
 10 12  1  0  0  0  0
 12 13  2  0  0  0  0
 13 14  1  0  0  0  0
 14 15  1  0  0  0  0
 14 28  1  6  0  0  0
 15 16  1  0  0  0  0
 15 27  1  1  0  0  0
 16 17  1  0  0  0  0
 16 26  1  0  0  0  0
 17 18  1  0  0  0  0
 18 19  1  0  0  0  0
 18 25  1  6  0  0  0
 19 20  1  6  0  0  0
 19 24  1  1  0  0  0
 20 21  2  0  0  0  0
 20 22  1  0  0  0  0
 22 23  1  0  0  0  0
M  END
>  <n>
310

>  <SMILES>
F[C@@]12[C@H]([C@@H]3C[C@@H](C)[C@](O)(C(=O)CO)[C@]3(C[C@@H]1O)C)CCC1=CC(=O)C=C[C@@]12C

>  <IC50>
101.7

>  <Class>
0

>  <NAME>
Dexamethasone

>  <INCHI_KEY>
UREBDLICKHMUKA-CXSFZGCWSA-N

>  <Reference>
Mitigating, Dawson

$$$$
ECONAZOLE
  MOE2013           2D

 24 26  0  0  1  0  0  0  0  0999 V2000
    6.2240   -2.9170    0.0000 C   0  0  0  0  0  0  0  0  0  0  0  0
    7.4380   -3.7980    0.0000 C   0  0  0  0  0  0  0  0  0  0  0  0
    8.8080   -3.1880    0.0000 C   0  0  0  0  0  0  0  0  0  0  0  0
    8.9650   -1.6960    0.0000 C   0  0  0  0  0  0  0  0  0  0  0  0
    7.7520   -0.8150    0.0000 C   0  0  0  0  0  0  0  0  0  0  0  0
    6.3810   -1.4250    0.0000 C   0  0  0  0  0  0  0  0  0  0  0  0
    5.1680   -0.5430    0.0000 C   0  0  0  0  0  0  0  0  0  0  0  0
    3.7970   -1.1530    0.0000 O   0  0  0  0  0  0  0  0  0  0  0  0
    2.5840   -0.2720    0.0000 C   0  0  3  0  0  0  0  0  0  0  0  0
    1.2140   -0.8820    0.0000 C   0  0  0  0  0  0  0  0  0  0  0  0
    0.0000    0.0000    0.0000 N   0  0  0  0  0  0  0  0  0  0  0  0
    0.0000    1.5000    0.0000 C   0  0  0  0  0  0  0  0  0  0  0  0
   -1.4270    1.9640    0.0000 C   0  0  0  0  0  0  0  0  0  0  0  0
   -2.3080    0.7500    0.0000 N   0  0  0  0  0  0  0  0  0  0  0  0
   -1.4270   -0.4640    0.0000 C   0  0  0  0  0  0  0  0  0  0  0  0
    2.7410    1.2200    0.0000 C   0  0  0  0  0  0  0  0  0  0  0  0
    4.1110    1.8300    0.0000 C   0  0  0  0  0  0  0  0  0  0  0  0
    4.2680    3.3220    0.0000 C   0  0  0  0  0  0  0  0  0  0  0  0
    3.0540    4.2040    0.0000 C   0  0  0  0  0  0  0  0  0  0  0  0
    1.6840    3.5940    0.0000 C   0  0  0  0  0  0  0  0  0  0  0  0
    1.5270    2.1020    0.0000 C   0  0  0  0  0  0  0  0  0  0  0  0
    0.1570    1.4920    0.0000 Cl  0  0  0  0  0  0  0  0  0  0  0  0
    3.2110    5.6960    0.0000 Cl  0  0  0  0  0  0  0  0  0  0  0  0
   10.0220   -4.0700    0.0000 Cl  0  0  0  0  0  0  0  0  0  0  0  0
  1  2  1  0  0  0  0
  1  6  2  0  0  0  0
  2  3  2  0  0  0  0
  3  4  1  0  0  0  0
  3 24  1  0  0  0  0
  4  5  2  0  0  0  0
  5  6  1  0  0  0  0
  6  7  1  0  0  0  0
  7  8  1  0  0  0  0
  8  9  1  0  0  0  0
  9 10  1  0  0  0  0
  9 16  1  0  0  0  0
 10 11  1  0  0  0  0
 11 12  1  0  0  0  0
 11 15  1  0  0  0  0
 12 13  2  0  0  0  0
 13 14  1  0  0  0  0
 14 15  2  0  0  0  0
 16 17  1  0  0  0  0
 16 21  2  0  0  0  0
 17 18  2  0  0  0  0
 18 19  1  0  0  0  0
 19 20  2  0  0  0  0
 19 23  1  0  0  0  0
 20 21  1  0  0  0  0
 21 22  1  0  0  0  0
M  END
>  <n>
340

>  <SMILES>
Clc1cc(Cl)ccc1C(OCc1ccc(Cl)cc1)Cn1ccnc1

>  <IC50>
<10

>  <Class>
1

>  <NAME>
ECONAZOLE

>  <INCHI_KEY>
LEZWWPYKPKIXLL-UHFFFAOYSA-N

>  <Reference>
Mitigating the inhibition of human Bile Salt Export Pump by drugs_ opportunities provided by physicochemical property modulation,  in-silico modeling and structural modification_SI

$$$$
ENALAPRILAT
  MOE2013           2D

 25 26  0  0  1  0  0  0  0  0999 V2000
    2.7410    1.2200    0.0000 C   0  0  0  0  0  0  0  0  0  0  0  0
    2.5840   -0.2720    0.0000 C   0  0  3  0  0  0  0  0  0  0  0  0
    1.2140   -0.8820    0.0000 C   0  0  0  0  0  0  0  0  0  0  0  0
    1.0570   -2.3740    0.0000 O   0  0  0  0  0  0  0  0  0  0  0  0
    0.0000    0.0000    0.0000 N   0  0  0  0  0  0  0  0  0  0  0  0
    0.0000    1.5000    0.0000 C   0  0  0  0  0  0  0  0  0  0  0  0
   -1.4270    1.9640    0.0000 C   0  0  0  0  0  0  0  0  0  0  0  0
   -2.3080    0.7500    0.0000 C   0  0  0  0  0  0  0  0  0  0  0  0
   -1.4270   -0.4640    0.0000 C   0  0  3  0  0  0  0  0  0  0  0  0
   -1.8900   -1.8900    0.0000 C   0  0  0  0  0  0  0  0  0  0  0  0
   -3.3570   -2.2020    0.0000 O   0  0  0  0  0  0  0  0  0  0  0  0
   -0.8860   -3.0050    0.0000 O   0  0  0  0  0  0  0  0  0  0  0  0
    3.7970   -1.1530    0.0000 N   0  0  0  0  0  0  0  0  0  0  0  0
    5.1680   -0.5430    0.0000 C   0  0  3  0  0  0  0  0  0  0  0  0
    6.3810   -1.4250    0.0000 C   0  0  0  0  0  0  0  0  0  0  0  0
    7.7520   -0.8150    0.0000 C   0  0  0  0  0  0  0  0  0  0  0  0
    8.9650   -1.6960    0.0000 C   0  0  0  0  0  0  0  0  0  0  0  0
    8.8080   -3.1880    0.0000 C   0  0  0  0  0  0  0  0  0  0  0  0
   10.0220   -4.0700    0.0000 C   0  0  0  0  0  0  0  0  0  0  0  0
   11.3920   -3.4600    0.0000 C   0  0  0  0  0  0  0  0  0  0  0  0
   11.5490   -1.9680    0.0000 C   0  0  0  0  0  0  0  0  0  0  0  0
   10.3350   -1.0860    0.0000 C   0  0  0  0  0  0  0  0  0  0  0  0
    5.3240    0.9490    0.0000 C   0  0  0  0  0  0  0  0  0  0  0  0
    6.6950    1.5590    0.0000 O   0  0  0  0  0  0  0  0  0  0  0  0
    4.1110    1.8300    0.0000 O   0  0  0  0  0  0  0  0  0  0  0  0
  1  2  1  0  0  0  0
  2  3  1  0  0  0  0
  2 13  1  0  0  0  0
  3  4  2  0  0  0  0
  3  5  1  0  0  0  0
  5  6  1  0  0  0  0
  5  9  1  0  0  0  0
  6  7  1  0  0  0  0
  7  8  1  0  0  0  0
  8  9  1  0  0  0  0
  9 10  1  0  0  0  0
 10 11  2  0  0  0  0
 10 12  1  0  0  0  0
 13 14  1  0  0  0  0
 14 15  1  0  0  0  0
 14 23  1  0  0  0  0
 15 16  1  0  0  0  0
 16 17  1  0  0  0  0
 17 18  1  0  0  0  0
 17 22  2  0  0  0  0
 18 19  2  0  0  0  0
 19 20  1  0  0  0  0
 20 21  2  0  0  0  0
 21 22  1  0  0  0  0
 23 24  2  0  0  0  0
 23 25  1  0  0  0  0
M  END
>  <n>
341

>  <SMILES>
OC(=O)[C@H]1N(CCC1)C(=O)[C@@H](N[C@@H](CCc1ccccc1)C(O)=O)C

>  <IC50>
>1000

>  <Class>
0

>  <NAME>
ENALAPRILAT

>  <INCHI_KEY>
LZFZMUMEGBBDTC-QEJZJMRPSA-N

>  <Reference>
Mitigating the inhibition of human Bile Salt Export Pump by drugs_ opportunities provided by physicochemical property modulation,  in-silico modeling and structural modification_SI

$$$$
ENPROFYLLINE
  MOE2013           2D

 14 15  0  0  0  0  0  0  0  0999 V2000
    2.5980   -4.5000    0.0000 C   0  0  0  0  0  0  0  0  0  0  0  0
    2.5980   -3.0000    0.0000 C   0  0  0  0  0  0  0  0  0  0  0  0
    1.2990   -2.2500    0.0000 C   0  0  0  0  0  0  0  0  0  0  0  0
    1.2990   -0.7500    0.0000 N   0  0  0  0  0  0  0  0  0  0  0  0
    0.0000    0.0000    0.0000 C   0  0  0  0  0  0  0  0  0  0  0  0
    0.0000    1.5000    0.0000 C   0  0  0  0  0  0  0  0  0  0  0  0
    1.2990    2.2500    0.0000 C   0  0  0  0  0  0  0  0  0  0  0  0
    1.2990    3.7500    0.0000 O   0  0  0  0  0  0  0  0  0  0  0  0
    2.5980    1.5000    0.0000 N   0  0  0  0  0  0  0  0  0  0  0  0
    2.5980    0.0000    0.0000 C   0  0  0  0  0  0  0  0  0  0  0  0
    3.8970   -0.7500    0.0000 O   0  0  0  0  0  0  0  0  0  0  0  0
   -1.4270    1.9640    0.0000 N   0  0  0  0  0  0  0  0  0  0  0  0
   -2.3080    0.7500    0.0000 C   0  0  0  0  0  0  0  0  0  0  0  0
   -1.4270   -0.4640    0.0000 N   0  0  0  0  0  0  0  0  0  0  0  0
  1  2  1  0  0  0  0
  2  3  1  0  0  0  0
  3  4  1  0  0  0  0
  4  5  1  0  0  0  0
  4 10  1  0  0  0  0
  5  6  2  0  0  0  0
  5 14  1  0  0  0  0
  6  7  1  0  0  0  0
  6 12  1  0  0  0  0
  7  8  2  0  0  0  0
  7  9  1  0  0  0  0
  9 10  1  0  0  0  0
 10 11  2  0  0  0  0
 12 13  1  0  0  0  0
 13 14  2  0  0  0  0
M  END
>  <n>
342

>  <SMILES>
O=C1NC(=O)N(c2nc[nH]c12)CCC

>  <IC50>
>1000

>  <Class>
0

>  <NAME>
ENPROFYLLINE

>  <INCHI_KEY>
SIQPXVQCUCHWDI-UHFFFAOYSA-N

>  <Reference>
Mitigating the inhibition of human Bile Salt Export Pump by drugs_ opportunities provided by physicochemical property modulation,  in-silico modeling and structural modification_SI

$$$$
ENROFLOXACIN
  MOE2013           2D

 26 29  0  0  1  0  0  0  0  0999 V2000
    5.1960   -4.5000    0.0000 C   0  0  0  0  0  0  0  0  0  0  0  0
    5.1960   -3.0000    0.0000 C   0  0  0  0  0  0  0  0  0  0  0  0
    3.8970   -2.2500    0.0000 N   0  0  0  0  0  0  0  0  0  0  0  0
    3.8970   -0.7500    0.0000 C   0  0  0  0  0  0  0  0  0  0  0  0
    2.5980    0.0000    0.0000 C   0  0  0  0  0  0  0  0  0  0  0  0
    1.2990   -0.7500    0.0000 N   0  0  0  0  0  0  0  0  0  0  0  0
    1.2990   -2.2500    0.0000 C   0  0  0  0  0  0  0  0  0  0  0  0
    2.5980   -3.0000    0.0000 C   0  0  0  0  0  0  0  0  0  0  0  0
    0.0000    0.0000    0.0000 C   0  0  0  0  0  0  0  0  0  0  0  0
    0.0000    1.5000    0.0000 C   0  0  0  0  0  0  0  0  0  0  0  0
   -1.2990    2.2500    0.0000 C   0  0  0  0  0  0  0  0  0  0  0  0
   -2.5980    1.5000    0.0000 C   0  0  0  0  0  0  0  0  0  0  0  0
   -2.5980    0.0000    0.0000 C   0  0  0  0  0  0  0  0  0  0  0  0
   -1.2990   -0.7500    0.0000 C   0  0  0  0  0  0  0  0  0  0  0  0
   -1.2990   -2.2500    0.0000 F   0  0  0  0  0  0  0  0  0  0  0  0
   -3.8970    2.2500    0.0000 C   0  0  0  0  0  0  0  0  0  0  0  0
   -5.1960    1.5000    0.0000 O   0  0  0  0  0  0  0  0  0  0  0  0
   -3.8970    3.7500    0.0000 C   0  0  0  0  0  0  0  0  0  0  0  0
   -2.5980    4.5000    0.0000 C   0  0  0  0  0  0  0  0  0  0  0  0
   -1.2990    3.7500    0.0000 N   0  0  3  0  0  0  0  0  0  0  0  0
    0.0000    4.5000    0.0000 C   0  0  0  0  0  0  0  0  0  0  0  0
    1.5000    4.5000    0.0000 C   0  0  0  0  0  0  0  0  0  0  0  0
    0.7500    5.7990    0.0000 C   0  0  0  0  0  0  0  0  0  0  0  0
   -5.1960    4.5000    0.0000 C   0  0  0  0  0  0  0  0  0  0  0  0
   -5.1960    6.0000    0.0000 O   0  0  0  0  0  0  0  0  0  0  0  0
   -6.4950    3.7500    0.0000 O   0  0  0  0  0  0  0  0  0  0  0  0
  1  2  1  0  0  0  0
  2  3  1  0  0  0  0
  3  4  1  0  0  0  0
  3  8  1  0  0  0  0
  4  5  1  0  0  0  0
  5  6  1  0  0  0  0
  6  7  1  0  0  0  0
  6  9  1  0  0  0  0
  7  8  1  0  0  0  0
  9 10  1  0  0  0  0
  9 14  2  0  0  0  0
 10 11  2  0  0  0  0
 11 12  1  0  0  0  0
 11 20  1  0  0  0  0
 12 13  2  0  0  0  0
 12 16  1  0  0  0  0
 13 14  1  0  0  0  0
 14 15  1  0  0  0  0
 16 17  2  0  0  0  0
 16 18  1  0  0  0  0
 18 19  2  0  0  0  0
 18 24  1  0  0  0  0
 19 20  1  0  0  0  0
 20 21  1  0  0  0  0
 21 22  1  0  0  0  0
 21 23  1  0  0  0  0
 22 23  1  0  0  0  0
 24 25  2  0  0  0  0
 24 26  1  0  0  0  0
M  END
>  <n>
343

>  <SMILES>
Fc1cc2c(N(C=C(C(O)=O)C2=O)C2CC2)cc1N1CCN(CC1)CC

>  <IC50>
>1000

>  <Class>
0

>  <NAME>
ENROFLOXACIN

>  <INCHI_KEY>
SPFYMRJSYKOXGV-UHFFFAOYSA-N

>  <Reference>
Mitigating the inhibition of human Bile Salt Export Pump by drugs_ opportunities provided by physicochemical property modulation,  in-silico modeling and structural modification_SI

$$$$
EPANOLOL
  MOE2013           2D

 27 28  0  0  1  0  0  0  0  0999 V2000
   10.3920  -13.5000    0.0000 C   0  0  0  0  0  0  0  0  0  0  0  0
   10.3920  -12.0000    0.0000 C   0  0  0  0  0  0  0  0  0  0  0  0
    9.0930  -11.2500    0.0000 C   0  0  0  0  0  0  0  0  0  0  0  0
    7.7940  -12.0000    0.0000 C   0  0  0  0  0  0  0  0  0  0  0  0
    7.7940  -13.5000    0.0000 C   0  0  0  0  0  0  0  0  0  0  0  0
    9.0930  -14.2500    0.0000 C   0  0  0  0  0  0  0  0  0  0  0  0
    6.4950  -14.2500    0.0000 C   0  0  0  0  0  0  0  0  0  0  0  0
    5.1960  -15.0000    0.0000 N   0  0  0  0  0  0  0  0  0  0  0  0
    6.4950  -11.2500    0.0000 O   0  0  0  0  0  0  0  0  0  0  0  0
    6.4950   -9.7500    0.0000 C   0  0  0  0  0  0  0  0  0  0  0  0
    5.1960   -9.0000    0.0000 C   0  0  3  0  0  0  0  0  0  0  0  0
    5.1960   -7.5000    0.0000 C   0  0  0  0  0  0  0  0  0  0  0  0
    3.8970   -6.7500    0.0000 N   0  0  0  0  0  0  0  0  0  0  0  0
    3.8970   -5.2500    0.0000 C   0  0  0  0  0  0  0  0  0  0  0  0
    2.5980   -4.5000    0.0000 C   0  0  0  0  0  0  0  0  0  0  0  0
    2.5980   -3.0000    0.0000 N   0  0  0  0  0  0  0  0  0  0  0  0
    1.2990   -2.2500    0.0000 C   0  0  0  0  0  0  0  0  0  0  0  0
    0.0000   -3.0000    0.0000 O   0  0  0  0  0  0  0  0  0  0  0  0
    1.2990   -0.7500    0.0000 C   0  0  0  0  0  0  0  0  0  0  0  0
    0.0000    0.0000    0.0000 C   0  0  0  0  0  0  0  0  0  0  0  0
    0.0000    1.5000    0.0000 C   0  0  0  0  0  0  0  0  0  0  0  0
   -1.2990    2.2500    0.0000 C   0  0  0  0  0  0  0  0  0  0  0  0
   -2.5980    1.5000    0.0000 C   0  0  0  0  0  0  0  0  0  0  0  0
   -2.5980    0.0000    0.0000 C   0  0  0  0  0  0  0  0  0  0  0  0
   -1.2990   -0.7500    0.0000 C   0  0  0  0  0  0  0  0  0  0  0  0
   -3.8970    2.2500    0.0000 O   0  0  0  0  0  0  0  0  0  0  0  0
    3.8970   -9.7500    0.0000 O   0  0  0  0  0  0  0  0  0  0  0  0
  1  2  1  0  0  0  0
  1  6  2  0  0  0  0
  2  3  2  0  0  0  0
  3  4  1  0  0  0  0
  4  5  2  0  0  0  0
  4  9  1  0  0  0  0
  5  6  1  0  0  0  0
  5  7  1  0  0  0  0
  7  8  3  0  0  0  0
  9 10  1  0  0  0  0
 10 11  1  0  0  0  0
 11 12  1  0  0  0  0
 11 27  1  0  0  0  0
 12 13  1  0  0  0  0
 13 14  1  0  0  0  0
 14 15  1  0  0  0  0
 15 16  1  0  0  0  0
 16 17  1  0  0  0  0
 17 18  2  0  0  0  0
 17 19  1  0  0  0  0
 19 20  1  0  0  0  0
 20 21  1  0  0  0  0
 20 25  2  0  0  0  0
 21 22  2  0  0  0  0
 22 23  1  0  0  0  0
 23 24  2  0  0  0  0
 23 26  1  0  0  0  0
 24 25  1  0  0  0  0
M  END
>  <n>
344

>  <SMILES>
O(CC(O)CNCCNC(=O)Cc1ccc(O)cc1)c1ccccc1C#N

>  <IC50>
244.4

>  <Class>
0

>  <NAME>
EPANOLOL

>  <INCHI_KEY>
YARKMNAWFIMDKV-UHFFFAOYSA-N

>  <Reference>
Mitigating the inhibition of human Bile Salt Export Pump by drugs_ opportunities provided by physicochemical property modulation,  in-silico modeling and structural modification_SI

$$$$
ESTRIOL
  MOE2013           2D

 21 24  0  0  1  0  0  0  0  0999 V2000
    1.3700    0.6100    0.0000 C   0  0  0  0  0  0  0  0  0  0  0  0
    0.0000    0.0000    0.0000 C   0  0  2  0  0  0  0  0  0  0  0  0
    0.0000    1.5000    0.0000 C   0  0  0  0  0  0  0  0  0  0  0  0
   -1.2990    2.2500    0.0000 C   0  0  0  0  0  0  0  0  0  0  0  0
   -2.5980    1.5000    0.0000 C   0  0  3  0  0  0  0  0  0  0  0  0
   -3.8970    2.2500    0.0000 C   0  0  0  0  0  0  0  0  0  0  0  0
   -3.8970    3.7500    0.0000 C   0  0  0  0  0  0  0  0  0  0  0  0
   -5.1960    4.5000    0.0000 C   0  0  0  0  0  0  0  0  0  0  0  0
   -6.4950    3.7500    0.0000 C   0  0  0  0  0  0  0  0  0  0  0  0
   -6.4950    2.2500    0.0000 C   0  0  0  0  0  0  0  0  0  0  0  0
   -5.1960    1.5000    0.0000 C   0  0  0  0  0  0  0  0  0  0  0  0
   -5.1960    0.0000    0.0000 C   0  0  0  0  0  0  0  0  0  0  0  0
   -3.8970   -0.7500    0.0000 C   0  0  0  0  0  0  0  0  0  0  0  0
   -2.5980    0.0000    0.0000 C   0  0  3  0  0  0  0  0  0  0  0  0
   -1.2990   -0.7500    0.0000 C   0  0  3  0  0  0  0  0  0  0  0  0
   -0.9870   -2.2170    0.0000 C   0  0  0  0  0  0  0  0  0  0  0  0
    0.5050   -2.3740    0.0000 C   0  0  3  0  0  0  0  0  0  0  0  0
    1.1150   -1.0040    0.0000 C   0  0  3  0  0  0  0  0  0  0  0  0
    2.5820   -0.6920    0.0000 O   0  0  0  0  0  0  0  0  0  0  0  0
    1.2550   -3.6730    0.0000 O   0  0  0  0  0  0  0  0  0  0  0  0
   -7.7940    4.5000    0.0000 O   0  0  0  0  0  0  0  0  0  0  0  0
  2  1  1  1  0  0  0
  2  3  1  0  0  0  0
  2 15  1  0  0  0  0
  2 18  1  0  0  0  0
  3  4  1  0  0  0  0
  4  5  1  0  0  0  0
  5  6  1  0  0  0  0
  5 14  1  0  0  0  0
  6  7  1  0  0  0  0
  6 11  2  0  0  0  0
  7  8  2  0  0  0  0
  8  9  1  0  0  0  0
  9 10  2  0  0  0  0
  9 21  1  0  0  0  0
 10 11  1  0  0  0  0
 11 12  1  0  0  0  0
 12 13  1  0  0  0  0
 13 14  1  0  0  0  0
 14 15  1  0  0  0  0
 15 16  1  0  0  0  0
 16 17  1  0  0  0  0
 17 18  1  0  0  0  0
 17 20  1  0  0  0  0
 18 19  1  0  0  0  0
M  END
>  <n>
346

>  <SMILES>
Oc1cc2CC[C@H]3[C@@H]4C[C@@H](O)[C@H](O)[C@]4(CC[C@@H]3c2cc1)C

>  <IC50>
>1000

>  <Class>
0

>  <NAME>
ESTRIOL

>  <INCHI_KEY>
PROQIPRRNZUXQM-ZXXIGWHRSA-N

>  <Reference>
Mitigating the inhibition of human Bile Salt Export Pump by drugs_ opportunities provided by physicochemical property modulation,  in-silico modeling and structural modification_SI

$$$$
ESTRONE
  MOE2013           2D

 20 23  0  0  1  0  0  0  0  0999 V2000
    1.3700    0.6100    0.0000 C   0  0  0  0  0  0  0  0  0  0  0  0
    0.0000    0.0000    0.0000 C   0  0  2  0  0  0  0  0  0  0  0  0
    0.0000    1.5000    0.0000 C   0  0  0  0  0  0  0  0  0  0  0  0
   -1.2990    2.2500    0.0000 C   0  0  0  0  0  0  0  0  0  0  0  0
   -2.5980    1.5000    0.0000 C   0  0  3  0  0  0  0  0  0  0  0  0
   -3.8970    2.2500    0.0000 C   0  0  0  0  0  0  0  0  0  0  0  0
   -3.8970    3.7500    0.0000 C   0  0  0  0  0  0  0  0  0  0  0  0
   -5.1960    4.5000    0.0000 C   0  0  0  0  0  0  0  0  0  0  0  0
   -6.4950    3.7500    0.0000 C   0  0  0  0  0  0  0  0  0  0  0  0
   -6.4950    2.2500    0.0000 C   0  0  0  0  0  0  0  0  0  0  0  0
   -5.1960    1.5000    0.0000 C   0  0  0  0  0  0  0  0  0  0  0  0
   -5.1960    0.0000    0.0000 C   0  0  0  0  0  0  0  0  0  0  0  0
   -3.8970   -0.7500    0.0000 C   0  0  0  0  0  0  0  0  0  0  0  0
   -2.5980    0.0000    0.0000 C   0  0  3  0  0  0  0  0  0  0  0  0
   -1.2990   -0.7500    0.0000 C   0  0  3  0  0  0  0  0  0  0  0  0
   -0.9870   -2.2170    0.0000 C   0  0  0  0  0  0  0  0  0  0  0  0
    0.5050   -2.3740    0.0000 C   0  0  0  0  0  0  0  0  0  0  0  0
    1.1150   -1.0040    0.0000 C   0  0  0  0  0  0  0  0  0  0  0  0
    2.5820   -0.6920    0.0000 O   0  0  0  0  0  0  0  0  0  0  0  0
   -7.7940    4.5000    0.0000 O   0  0  0  0  0  0  0  0  0  0  0  0
  2  1  1  1  0  0  0
  2  3  1  0  0  0  0
  2 15  1  0  0  0  0
  2 18  1  0  0  0  0
  3  4  1  0  0  0  0
  4  5  1  0  0  0  0
  5  6  1  0  0  0  0
  5 14  1  0  0  0  0
  6  7  1  0  0  0  0
  6 11  2  0  0  0  0
  7  8  2  0  0  0  0
  8  9  1  0  0  0  0
  9 10  2  0  0  0  0
  9 20  1  0  0  0  0
 10 11  1  0  0  0  0
 11 12  1  0  0  0  0
 12 13  1  0  0  0  0
 13 14  1  0  0  0  0
 14 15  1  0  0  0  0
 15 16  1  0  0  0  0
 16 17  1  0  0  0  0
 17 18  1  0  0  0  0
 18 19  2  0  0  0  0
M  END
>  <n>
347

>  <SMILES>
Oc1cc2CC[C@H]3[C@@H]4CCC(=O)[C@]4(CC[C@@H]3c2cc1)C

>  <IC50>
>1000

>  <Class>
0

>  <NAME>
ESTRONE

>  <INCHI_KEY>
DNXHEGUUPJUMQT-CBZIJGRNSA-N

>  <Reference>
Mitigating the inhibition of human Bile Salt Export Pump by drugs_ opportunities provided by physicochemical property modulation,  in-silico modeling and structural modification_SI

$$$$
ETHIONAMIDE
  MOE2013           2D

 11 11  0  0  0  0  0  0  0  0999 V2000
    1.2990   -2.2500    0.0000 C   0  0  0  0  0  0  0  0  0  0  0  0
    1.2990   -0.7500    0.0000 C   0  0  0  0  0  0  0  0  0  0  0  0
    0.0000    0.0000    0.0000 C   0  0  0  0  0  0  0  0  0  0  0  0
    0.0000    1.5000    0.0000 C   0  0  0  0  0  0  0  0  0  0  0  0
   -1.2990    2.2500    0.0000 C   0  0  0  0  0  0  0  0  0  0  0  0
   -2.5980    1.5000    0.0000 C   0  0  0  0  0  0  0  0  0  0  0  0
   -2.5980    0.0000    0.0000 C   0  0  0  0  0  0  0  0  0  0  0  0
   -1.2990   -0.7500    0.0000 N   0  0  0  0  0  0  0  0  0  0  0  0
   -1.2990    3.7500    0.0000 C   0  0  0  0  0  0  0  0  0  0  0  0
   -2.5980    4.5000    0.0000 S   0  0  0  0  0  0  0  0  0  0  0  0
    0.0000    4.5000    0.0000 N   0  0  0  0  0  0  0  0  0  0  0  0
  1  2  1  0  0  0  0
  2  3  1  0  0  0  0
  3  4  1  0  0  0  0
  3  8  2  0  0  0  0
  4  5  2  0  0  0  0
  5  6  1  0  0  0  0
  5  9  1  0  0  0  0
  6  7  2  0  0  0  0
  7  8  1  0  0  0  0
  9 10  2  0  0  0  0
  9 11  1  0  0  0  0
M  END
>  <n>
349

>  <SMILES>
S=C(N)c1cc(ncc1)CC

>  <IC50>
>1000

>  <Class>
0

>  <NAME>
ETHIONAMIDE

>  <INCHI_KEY>
AEOCXXJPGCBFJA-UHFFFAOYSA-N

>  <Reference>
Mitigating the inhibition of human Bile Salt Export Pump by drugs_ opportunities provided by physicochemical property modulation,  in-silico modeling and structural modification_SI

$$$$
ETHOPROPAZINE
  MOE2013           2D

 22 24  0  0  1  0  0  0  0  0999 V2000
    3.8970   -5.2500    0.0000 C   0  0  0  0  0  0  0  0  0  0  0  0
    2.5980   -4.5000    0.0000 C   0  0  0  0  0  0  0  0  0  0  0  0
    2.5980   -3.0000    0.0000 N   0  0  0  0  0  0  0  0  0  0  0  0
    3.8970   -2.2500    0.0000 C   0  0  0  0  0  0  0  0  0  0  0  0
    5.1960   -3.0000    0.0000 C   0  0  0  0  0  0  0  0  0  0  0  0
    1.2990   -2.2500    0.0000 C   0  0  3  0  0  0  0  0  0  0  0  0
    0.0000   -3.0000    0.0000 C   0  0  0  0  0  0  0  0  0  0  0  0
    1.2990   -0.7500    0.0000 C   0  0  0  0  0  0  0  0  0  0  0  0
    0.0000    0.0000    0.0000 N   0  0  0  0  0  0  0  0  0  0  0  0
    0.0000    1.5000    0.0000 C   0  0  0  0  0  0  0  0  0  0  0  0
    1.2990    2.2500    0.0000 C   0  0  0  0  0  0  0  0  0  0  0  0
    1.2990    3.7500    0.0000 C   0  0  0  0  0  0  0  0  0  0  0  0
    0.0000    4.5000    0.0000 C   0  0  0  0  0  0  0  0  0  0  0  0
   -1.2990    3.7500    0.0000 C   0  0  0  0  0  0  0  0  0  0  0  0
   -1.2990    2.2500    0.0000 C   0  0  0  0  0  0  0  0  0  0  0  0
   -2.5980    1.5000    0.0000 S   0  0  0  0  0  0  0  0  0  0  0  0
   -2.5980    0.0000    0.0000 C   0  0  0  0  0  0  0  0  0  0  0  0
   -1.2990   -0.7500    0.0000 C   0  0  0  0  0  0  0  0  0  0  0  0
   -1.2990   -2.2500    0.0000 C   0  0  0  0  0  0  0  0  0  0  0  0
   -2.5980   -3.0000    0.0000 C   0  0  0  0  0  0  0  0  0  0  0  0
   -3.8970   -2.2500    0.0000 C   0  0  0  0  0  0  0  0  0  0  0  0
   -3.8970   -0.7500    0.0000 C   0  0  0  0  0  0  0  0  0  0  0  0
  1  2  1  0  0  0  0
  2  3  1  0  0  0  0
  3  4  1  0  0  0  0
  3  6  1  0  0  0  0
  4  5  1  0  0  0  0
  6  7  1  0  0  0  0
  6  8  1  0  0  0  0
  8  9  1  0  0  0  0
  9 10  1  0  0  0  0
  9 18  1  0  0  0  0
 10 11  1  0  0  0  0
 10 15  2  0  0  0  0
 11 12  2  0  0  0  0
 12 13  1  0  0  0  0
 13 14  2  0  0  0  0
 14 15  1  0  0  0  0
 15 16  1  0  0  0  0
 16 17  1  0  0  0  0
 17 18  1  0  0  0  0
 17 22  2  0  0  0  0
 18 19  2  0  0  0  0
 19 20  1  0  0  0  0
 20 21  2  0  0  0  0
 21 22  1  0  0  0  0
M  END
>  <n>
350

>  <SMILES>
S1c2c(N(c3c1cccc3)CC(N(CC)CC)C)cccc2

>  <IC50>
139.2

>  <Class>
0

>  <NAME>
ETHOPROPAZINE

>  <INCHI_KEY>
CDOZDBSBBXSXLB-UHFFFAOYSA-N

>  <Reference>
Mitigating the inhibition of human Bile Salt Export Pump by drugs_ opportunities provided by physicochemical property modulation,  in-silico modeling and structural modification_SI

$$$$
ETHOSUXIMIDE
  MOE2013           2D

 10 10  0  0  1  0  0  0  0  0999 V2000
    1.7380   -1.9310    0.0000 C   0  0  0  0  0  0  0  0  0  0  0  0
    0.3120   -1.4670    0.0000 C   0  0  0  0  0  0  0  0  0  0  0  0
    0.0000    0.0000    0.0000 C   0  0  3  0  0  0  0  0  0  0  0  0
    0.0000    1.5000    0.0000 C   0  0  0  0  0  0  0  0  0  0  0  0
   -1.4270    1.9640    0.0000 C   0  0  0  0  0  0  0  0  0  0  0  0
   -1.8900    3.3900    0.0000 O   0  0  0  0  0  0  0  0  0  0  0  0
   -2.3080    0.7500    0.0000 N   0  0  0  0  0  0  0  0  0  0  0  0
   -1.4270   -0.4640    0.0000 C   0  0  0  0  0  0  0  0  0  0  0  0
   -1.8900   -1.8900    0.0000 O   0  0  0  0  0  0  0  0  0  0  0  0
    1.4920    0.1570    0.0000 C   0  0  0  0  0  0  0  0  0  0  0  0
  1  2  1  0  0  0  0
  2  3  1  0  0  0  0
  3  4  1  0  0  0  0
  3  8  1  0  0  0  0
  3 10  1  0  0  0  0
  4  5  1  0  0  0  0
  5  6  2  0  0  0  0
  5  7  1  0  0  0  0
  7  8  1  0  0  0  0
  8  9  2  0  0  0  0
M  END
>  <n>
351

>  <SMILES>
O=C1NC(=O)CC1(CC)C

>  <IC50>
>1000

>  <Class>
0

>  <NAME>
ETHOSUXIMIDE

>  <INCHI_KEY>
HAPOVYFOVVWLRS-UHFFFAOYSA-N

>  <Reference>
Mitigating the inhibition of human Bile Salt Export Pump by drugs_ opportunities provided by physicochemical property modulation,  in-silico modeling and structural modification_SI

$$$$
ETHOTOIN
  MOE2013           2D

 15 16  0  0  1  0  0  0  0  0999 V2000
    1.0570   -2.3740    0.0000 C   0  0  0  0  0  0  0  0  0  0  0  0
    1.2140   -0.8820    0.0000 C   0  0  0  0  0  0  0  0  0  0  0  0
    0.0000    0.0000    0.0000 N   0  0  0  0  0  0  0  0  0  0  0  0
    0.0000    1.5000    0.0000 C   0  0  0  0  0  0  0  0  0  0  0  0
    1.2140    2.3820    0.0000 O   0  0  0  0  0  0  0  0  0  0  0  0
   -1.4270    1.9640    0.0000 C   0  0  3  0  0  0  0  0  0  0  0  0
   -2.3080    0.7500    0.0000 N   0  0  0  0  0  0  0  0  0  0  0  0
   -1.4270   -0.4640    0.0000 C   0  0  0  0  0  0  0  0  0  0  0  0
   -1.8900   -1.8900    0.0000 O   0  0  0  0  0  0  0  0  0  0  0  0
   -1.8900    3.3900    0.0000 C   0  0  0  0  0  0  0  0  0  0  0  0
   -0.8860    4.5050    0.0000 C   0  0  0  0  0  0  0  0  0  0  0  0
   -1.3500    5.9310    0.0000 C   0  0  0  0  0  0  0  0  0  0  0  0
   -2.8170    6.2430    0.0000 C   0  0  0  0  0  0  0  0  0  0  0  0
   -3.8210    5.1290    0.0000 C   0  0  0  0  0  0  0  0  0  0  0  0
   -3.3570    3.7020    0.0000 C   0  0  0  0  0  0  0  0  0  0  0  0
  1  2  1  0  0  0  0
  2  3  1  0  0  0  0
  3  4  1  0  0  0  0
  3  8  1  0  0  0  0
  4  5  2  0  0  0  0
  4  6  1  0  0  0  0
  6  7  1  0  0  0  0
  6 10  1  0  0  0  0
  7  8  1  0  0  0  0
  8  9  2  0  0  0  0
 10 11  1  0  0  0  0
 10 15  2  0  0  0  0
 11 12  2  0  0  0  0
 12 13  1  0  0  0  0
 13 14  2  0  0  0  0
 14 15  1  0  0  0  0
M  END
>  <n>
352

>  <SMILES>
O=C1N(CC)C(=O)NC1c1ccccc1

>  <IC50>
>791.9

>  <Class>
0

>  <NAME>
ETHOTOIN

>  <INCHI_KEY>
SZQIFWWUIBRPBZ-UHFFFAOYSA-N

>  <Reference>
Mitigating the inhibition of human Bile Salt Export Pump by drugs_ opportunities provided by physicochemical property modulation,  in-silico modeling and structural modification_SI

$$$$
ETHYL_CARBAMATE
  MOE2013           2D

  6  5  0  0  0  0  0  0  0  0999 V2000
    0.0000    0.0000    0.0000 C   0  0  0  0  0  0  0  0  0  0  0  0
    0.0000    1.5000    0.0000 C   0  0  0  0  0  0  0  0  0  0  0  0
   -1.2990    2.2500    0.0000 O   0  0  0  0  0  0  0  0  0  0  0  0
   -1.2990    3.7500    0.0000 C   0  0  0  0  0  0  0  0  0  0  0  0
   -2.5980    4.5000    0.0000 O   0  0  0  0  0  0  0  0  0  0  0  0
    0.0000    4.5000    0.0000 N   0  0  0  0  0  0  0  0  0  0  0  0
  1  2  1  0  0  0  0
  2  3  1  0  0  0  0
  3  4  1  0  0  0  0
  4  5  2  0  0  0  0
  4  6  1  0  0  0  0
M  END
>  <n>
353

>  <SMILES>
O(CC)C(=O)N

>  <IC50>
>1000

>  <Class>
0

>  <NAME>
ETHYL CARBAMATE

>  <INCHI_KEY>
JOYRKODLDBILNP-UHFFFAOYSA-N

>  <Reference>
Mitigating the inhibition of human Bile Salt Export Pump by drugs_ opportunities provided by physicochemical property modulation,  in-silico modeling and structural modification_SI

$$$$
ETIDRONATE
  MOE2013           2D

 11 10  0  0  0  0  0  0  0  0999 V2000
   -2.7760    2.5100    0.0000 C   0  0  0  0  0  0  0  0  0  0  0  0
   -1.2990    2.2500    0.0000 C   0  0  0  0  0  0  0  0  0  0  0  0
   -1.8120    0.8400    0.0000 O   0  0  0  0  0  0  0  0  0  0  0  0
    0.0000    1.5000    0.0000 P   0  0  0  0  0  0  0  0  0  0  0  0
    0.0000    0.0000    0.0000 O   0  0  0  0  0  0  0  0  0  0  0  0
    1.4770    1.2400    0.0000 O   0  0  0  0  0  0  0  0  0  0  0  0
    0.5130    2.9100    0.0000 O   0  0  0  0  0  0  0  0  0  0  0  0
   -1.2990    3.7500    0.0000 P   0  0  0  0  0  0  0  0  0  0  0  0
   -2.5980    4.5000    0.0000 O   0  0  0  0  0  0  0  0  0  0  0  0
    0.1780    3.4900    0.0000 O   0  0  0  0  0  0  0  0  0  0  0  0
   -0.7860    5.1600    0.0000 O   0  0  0  0  0  0  0  0  0  0  0  0
  1  2  1  0  0  0  0
  2  3  1  0  0  0  0
  2  4  1  0  0  0  0
  2  8  1  0  0  0  0
  4  5  2  0  0  0  0
  4  6  1  0  0  0  0
  4  7  1  0  0  0  0
  8  9  2  0  0  0  0
  8 10  1  0  0  0  0
  8 11  1  0  0  0  0
M  END
>  <n>
354

>  <SMILES>
P(O)(O)(=O)C(P(O)(O)=O)(O)C

>  <IC50>
>1000

>  <Class>
0

>  <NAME>
ETIDRONATE

>  <INCHI_KEY>
DBVJJBKOTRCVKF-UHFFFAOYSA-N

>  <Reference>
Mitigating the inhibition of human Bile Salt Export Pump by drugs_ opportunities provided by physicochemical property modulation,  in-silico modeling and structural modification_SI

$$$$
ETOMIDATE
  MOE2013           2D

 18 19  0  0  1  0  0  0  0  0999 V2000
    5.1680   -0.5430    0.0000 C   0  0  0  0  0  0  0  0  0  0  0  0
    3.7970   -1.1530    0.0000 C   0  0  0  0  0  0  0  0  0  0  0  0
    2.5840   -0.2720    0.0000 O   0  0  0  0  0  0  0  0  0  0  0  0
    1.2140   -0.8820    0.0000 C   0  0  0  0  0  0  0  0  0  0  0  0
    1.0570   -2.3740    0.0000 O   0  0  0  0  0  0  0  0  0  0  0  0
    0.0000    0.0000    0.0000 C   0  0  0  0  0  0  0  0  0  0  0  0
    0.0000    1.5000    0.0000 C   0  0  0  0  0  0  0  0  0  0  0  0
   -1.4270    1.9640    0.0000 N   0  0  0  0  0  0  0  0  0  0  0  0
   -2.3080    0.7500    0.0000 C   0  0  0  0  0  0  0  0  0  0  0  0
   -1.4270   -0.4640    0.0000 N   0  0  0  0  0  0  0  0  0  0  0  0
   -1.8900   -1.8900    0.0000 C   0  0  3  0  0  0  0  0  0  0  0  0
   -0.8860   -3.0050    0.0000 C   0  0  0  0  0  0  0  0  0  0  0  0
   -3.3570   -2.2020    0.0000 C   0  0  0  0  0  0  0  0  0  0  0  0
   -4.3610   -1.0870    0.0000 C   0  0  0  0  0  0  0  0  0  0  0  0
   -5.8280   -1.3990    0.0000 C   0  0  0  0  0  0  0  0  0  0  0  0
   -6.2920   -2.8260    0.0000 C   0  0  0  0  0  0  0  0  0  0  0  0
   -5.2880   -3.9400    0.0000 C   0  0  0  0  0  0  0  0  0  0  0  0
   -3.8210   -3.6290    0.0000 C   0  0  0  0  0  0  0  0  0  0  0  0
  1  2  1  0  0  0  0
  2  3  1  0  0  0  0
  3  4  1  0  0  0  0
  4  5  2  0  0  0  0
  4  6  1  0  0  0  0
  6  7  2  0  0  0  0
  6 10  1  0  0  0  0
  7  8  1  0  0  0  0
  8  9  2  0  0  0  0
  9 10  1  0  0  0  0
 10 11  1  0  0  0  0
 11 12  1  0  0  0  0
 11 13  1  0  0  0  0
 13 14  1  0  0  0  0
 13 18  2  0  0  0  0
 14 15  2  0  0  0  0
 15 16  1  0  0  0  0
 16 17  2  0  0  0  0
 17 18  1  0  0  0  0
M  END
>  <n>
355

>  <SMILES>
O(C(=O)c1n(cnc1)C(C)c1ccccc1)CC

>  <IC50>
61.61

>  <Class>
0

>  <NAME>
ETOMIDATE

>  <INCHI_KEY>
NPUKDXXFDDZOKR-UHFFFAOYSA-N

>  <Reference>
Mitigating the inhibition of human Bile Salt Export Pump by drugs_ opportunities provided by physicochemical property modulation,  in-silico modeling and structural modification_SI

$$$$
Erlotinib
  MOE2013           2D

 29 31  0  0  0  0  0  0  0  0999 V2000
    3.8970   -5.2500    0.0000 C   0  0  0  0  0  0  0  0  0  0  0  0
    2.5980   -4.5000    0.0000 O   0  0  0  0  0  0  0  0  0  0  0  0
    2.5980   -3.0000    0.0000 C   0  0  0  0  0  0  0  0  0  0  0  0
    1.2990   -2.2500    0.0000 C   0  0  0  0  0  0  0  0  0  0  0  0
    1.2990   -0.7500    0.0000 O   0  0  0  0  0  0  0  0  0  0  0  0
    0.0000    0.0000    0.0000 C   0  0  0  0  0  0  0  0  0  0  0  0
    0.0000    1.5000    0.0000 C   0  0  0  0  0  0  0  0  0  0  0  0
   -1.2990    2.2500    0.0000 C   0  0  0  0  0  0  0  0  0  0  0  0
   -2.5980    1.5000    0.0000 C   0  0  0  0  0  0  0  0  0  0  0  0
   -2.5980    0.0000    0.0000 C   0  0  0  0  0  0  0  0  0  0  0  0
   -1.2990   -0.7500    0.0000 C   0  0  0  0  0  0  0  0  0  0  0  0
   -1.2990   -2.2500    0.0000 O   0  0  0  0  0  0  0  0  0  0  0  0
   -2.5980   -3.0000    0.0000 C   0  0  0  0  0  0  0  0  0  0  0  0
   -2.5980   -4.5000    0.0000 C   0  0  0  0  0  0  0  0  0  0  0  0
   -3.8970   -5.2500    0.0000 O   0  0  0  0  0  0  0  0  0  0  0  0
   -3.8970   -6.7500    0.0000 C   0  0  0  0  0  0  0  0  0  0  0  0
   -3.8970    2.2500    0.0000 N   0  0  0  0  0  0  0  0  0  0  0  0
   -3.8970    3.7500    0.0000 C   0  0  0  0  0  0  0  0  0  0  0  0
   -2.5980    4.5000    0.0000 N   0  0  0  0  0  0  0  0  0  0  0  0
   -1.2990    3.7500    0.0000 C   0  0  0  0  0  0  0  0  0  0  0  0
    0.0000    4.5000    0.0000 N   0  0  0  0  0  0  0  0  0  0  0  0
    0.0000    6.0000    0.0000 C   0  0  0  0  0  0  0  0  0  0  0  0
    1.2990    6.7500    0.0000 C   0  0  0  0  0  0  0  0  0  0  0  0
    1.2990    8.2500    0.0000 C   0  0  0  0  0  0  0  0  0  0  0  0
    0.0000    9.0000    0.0000 C   0  0  0  0  0  0  0  0  0  0  0  0
   -1.2990    8.2500    0.0000 C   0  0  0  0  0  0  0  0  0  0  0  0
   -1.2990    6.7500    0.0000 C   0  0  0  0  0  0  0  0  0  0  0  0
   -2.5980    9.0000    0.0000 C   0  0  0  0  0  0  0  0  0  0  0  0
   -3.8970    9.7500    0.0000 C   0  0  0  0  0  0  0  0  0  0  0  0
  1  2  1  0  0  0  0
  2  3  1  0  0  0  0
  3  4  1  0  0  0  0
  4  5  1  0  0  0  0
  5  6  1  0  0  0  0
  6  7  1  0  0  0  0
  6 11  2  0  0  0  0
  7  8  2  0  0  0  0
  8  9  1  0  0  0  0
  8 20  1  0  0  0  0
  9 10  2  0  0  0  0
  9 17  1  0  0  0  0
 10 11  1  0  0  0  0
 11 12  1  0  0  0  0
 12 13  1  0  0  0  0
 13 14  1  0  0  0  0
 14 15  1  0  0  0  0
 15 16  1  0  0  0  0
 17 18  2  0  0  0  0
 18 19  1  0  0  0  0
 19 20  2  0  0  0  0
 20 21  1  0  0  0  0
 21 22  1  0  0  0  0
 22 23  1  0  0  0  0
 22 27  2  0  0  0  0
 23 24  2  0  0  0  0
 24 25  1  0  0  0  0
 25 26  2  0  0  0  0
 26 27  1  0  0  0  0
 26 28  1  0  0  0  0
 28 29  3  0  0  0  0
M  END
>  <n>
345

>  <SMILES>
O(CCOC)c1cc2c(ncnc2Nc2cc(ccc2)C#C)cc1OCCOC

>  <IC50>
<10

>  <Class>
1

>  <NAME>
Erlotinib

>  <INCHI_KEY>
GTTBEUCJPZQMDZ-UHFFFAOYSA-N

>  <Reference>
Mitigating the inhibition of human Bile Salt Export Pump by drugs_ opportunities provided by physicochemical property modulation,  in-silico modeling and structural modification_SI

$$$$
Famotidine
  MOE2013           2D

 20 20  0  0  0  0  0  0  0  0999 V2000
    0.0000    0.0000    0.0000 C   0  0  0  0  0  0  0  0  0  0  0  0
    0.0000    1.5000    0.0000 C   0  0  0  0  0  0  0  0  0  0  0  0
   -1.4270    1.9640    0.0000 N   0  0  0  0  0  0  0  0  0  0  0  0
   -2.3080    0.7500    0.0000 C   0  0  0  0  0  0  0  0  0  0  0  0
   -1.4270   -0.4640    0.0000 S   0  0  0  0  0  0  0  0  0  0  0  0
   -3.8080    0.7500    0.0000 N   0  0  0  0  0  0  0  0  0  0  0  0
   -4.5580   -0.5490    0.0000 C   0  0  0  0  0  0  0  0  0  0  0  0
   -6.0580   -0.5490    0.0000 N   0  0  0  0  0  0  0  0  0  0  0  0
   -3.8080   -1.8480    0.0000 N   0  0  0  0  0  0  0  0  0  0  0  0
    1.2140    2.3820    0.0000 C   0  0  0  0  0  0  0  0  0  0  0  0
    2.5840    1.7720    0.0000 S   0  0  0  0  0  0  0  0  0  0  0  0
    3.7970    2.6530    0.0000 C   0  0  0  0  0  0  0  0  0  0  0  0
    5.1680    2.0430    0.0000 C   0  0  0  0  0  0  0  0  0  0  0  0
    6.3810    2.9250    0.0000 C   0  0  0  0  0  0  0  0  0  0  0  0
    7.7520    2.3150    0.0000 N   0  0  0  0  0  0  0  0  0  0  0  0
    8.9650    3.1960    0.0000 S   0  0  0  0  0  0  0  0  0  0  0  0
   10.3350    2.5860    0.0000 O   0  0  0  0  0  0  0  0  0  0  0  0
    9.8040    4.4400    0.0000 O   0  0  0  0  0  0  0  0  0  0  0  0
    7.8860    4.2380    0.0000 N   0  0  0  0  0  0  0  0  0  0  0  0
    6.2240    4.4170    0.0000 N   0  0  0  0  0  0  0  0  0  0  0  0
  1  2  2  0  0  0  0
  1  5  1  0  0  0  0
  2  3  1  0  0  0  0
  2 10  1  0  0  0  0
  3  4  2  0  0  0  0
  4  5  1  0  0  0  0
  4  6  1  0  0  0  0
  6  7  2  0  0  0  0
  7  8  1  0  0  0  0
  7  9  1  0  0  0  0
 10 11  1  0  0  0  0
 11 12  1  0  0  0  0
 12 13  1  0  0  0  0
 13 14  1  0  0  0  0
 14 15  2  0  0  0  0
 14 20  1  0  0  0  0
 15 16  1  0  0  0  0
 16 17  2  0  0  0  0
 16 18  2  0  0  0  0
 16 19  1  0  0  0  0
M  END
>  <n>
32

>  <IC50>
>1000

>  <Class>
0

>  <NAME>
FAMOTIDINE

>  <INCHI_KEY>
XUFQPHANEAPEMJ-UHFFFAOYSA-N

>  <Reference>
Dawson

$$$$
FELBAMATE
  MOE2013           2D

 17 17  0  0  0  0  0  0  0  0999 V2000
    0.0000    0.0000    0.0000 C   0  0  0  0  0  0  0  0  0  0  0  0
    0.0000    1.5000    0.0000 C   0  0  0  0  0  0  0  0  0  0  0  0
   -1.2990    2.2500    0.0000 C   0  0  0  0  0  0  0  0  0  0  0  0
   -2.5980    1.5000    0.0000 C   0  0  0  0  0  0  0  0  0  0  0  0
   -2.5980    0.0000    0.0000 C   0  0  0  0  0  0  0  0  0  0  0  0
   -1.2990   -0.7500    0.0000 C   0  0  0  0  0  0  0  0  0  0  0  0
   -3.8970    2.2500    0.0000 C   0  0  0  0  0  0  0  0  0  0  0  0
   -5.1960    1.5000    0.0000 C   0  0  0  0  0  0  0  0  0  0  0  0
   -6.4950    2.2500    0.0000 O   0  0  0  0  0  0  0  0  0  0  0  0
   -7.7940    1.5000    0.0000 C   0  0  0  0  0  0  0  0  0  0  0  0
   -9.0930    2.2500    0.0000 O   0  0  0  0  0  0  0  0  0  0  0  0
   -7.7940    0.0000    0.0000 N   0  0  0  0  0  0  0  0  0  0  0  0
   -3.8970    3.7500    0.0000 C   0  0  0  0  0  0  0  0  0  0  0  0
   -2.5980    4.5000    0.0000 O   0  0  0  0  0  0  0  0  0  0  0  0
   -2.5980    6.0000    0.0000 C   0  0  0  0  0  0  0  0  0  0  0  0
   -1.2990    6.7500    0.0000 O   0  0  0  0  0  0  0  0  0  0  0  0
   -3.8970    6.7500    0.0000 N   0  0  0  0  0  0  0  0  0  0  0  0
  1  2  1  0  0  0  0
  1  6  2  0  0  0  0
  2  3  2  0  0  0  0
  3  4  1  0  0  0  0
  4  5  2  0  0  0  0
  4  7  1  0  0  0  0
  5  6  1  0  0  0  0
  7  8  1  0  0  0  0
  7 13  1  0  0  0  0
  8  9  1  0  0  0  0
  9 10  1  0  0  0  0
 10 11  2  0  0  0  0
 10 12  1  0  0  0  0
 13 14  1  0  0  0  0
 14 15  1  0  0  0  0
 15 16  2  0  0  0  0
 15 17  1  0  0  0  0
M  END
>  <n>
356

>  <SMILES>
O(CC(COC(=O)N)c1ccccc1)C(=O)N

>  <IC50>
>1000

>  <Class>
0

>  <NAME>
FELBAMATE

>  <INCHI_KEY>
WKGXYQFOCVYPAC-UHFFFAOYSA-N

>  <Reference>
Mitigating, Dawson

$$$$
FENCLOFENAC
  MOE2013           2D

 19 20  0  0  0  0  0  0  0  0999 V2000
    0.0000    0.0000    0.0000 C   0  0  0  0  0  0  0  0  0  0  0  0
    0.0000    1.5000    0.0000 C   0  0  0  0  0  0  0  0  0  0  0  0
   -1.2990    2.2500    0.0000 C   0  0  0  0  0  0  0  0  0  0  0  0
   -2.5980    1.5000    0.0000 C   0  0  0  0  0  0  0  0  0  0  0  0
   -2.5980    0.0000    0.0000 C   0  0  0  0  0  0  0  0  0  0  0  0
   -1.2990   -0.7500    0.0000 C   0  0  0  0  0  0  0  0  0  0  0  0
   -3.8970   -0.7500    0.0000 C   0  0  0  0  0  0  0  0  0  0  0  0
   -3.8970   -2.2500    0.0000 C   0  0  0  0  0  0  0  0  0  0  0  0
   -5.1960   -3.0000    0.0000 O   0  0  0  0  0  0  0  0  0  0  0  0
   -2.5980   -3.0000    0.0000 O   0  0  0  0  0  0  0  0  0  0  0  0
   -3.8970    2.2500    0.0000 O   0  0  0  0  0  0  0  0  0  0  0  0
   -3.8970    3.7500    0.0000 C   0  0  0  0  0  0  0  0  0  0  0  0
   -2.5980    4.5000    0.0000 C   0  0  0  0  0  0  0  0  0  0  0  0
   -2.5980    6.0000    0.0000 C   0  0  0  0  0  0  0  0  0  0  0  0
   -3.8970    6.7500    0.0000 C   0  0  0  0  0  0  0  0  0  0  0  0
   -5.1960    6.0000    0.0000 C   0  0  0  0  0  0  0  0  0  0  0  0
   -5.1960    4.5000    0.0000 C   0  0  0  0  0  0  0  0  0  0  0  0
   -6.4950    3.7500    0.0000 Cl  0  0  0  0  0  0  0  0  0  0  0  0
   -3.8970    8.2500    0.0000 Cl  0  0  0  0  0  0  0  0  0  0  0  0
  1  2  1  0  0  0  0
  1  6  2  0  0  0  0
  2  3  2  0  0  0  0
  3  4  1  0  0  0  0
  4  5  2  0  0  0  0
  4 11  1  0  0  0  0
  5  6  1  0  0  0  0
  5  7  1  0  0  0  0
  7  8  1  0  0  0  0
  8  9  2  0  0  0  0
  8 10  1  0  0  0  0
 11 12  1  0  0  0  0
 12 13  1  0  0  0  0
 12 17  2  0  0  0  0
 13 14  2  0  0  0  0
 14 15  1  0  0  0  0
 15 16  2  0  0  0  0
 15 19  1  0  0  0  0
 16 17  1  0  0  0  0
 17 18  1  0  0  0  0
M  END
>  <n>
357

>  <SMILES>
Clc1cc(Cl)ccc1Oc1ccccc1CC(O)=O

>  <IC50>
235.7

>  <Class>
0

>  <NAME>
FENCLOFENAC

>  <INCHI_KEY>
IDKAXRLETRCXKS-UHFFFAOYSA-N

>  <Reference>
Mitigating the inhibition of human Bile Salt Export Pump by drugs_ opportunities provided by physicochemical property modulation,  in-silico modeling and structural modification_SI

$$$$
FENCLOZIC_ACID
  MOE2013           2D

 16 17  0  0  0  0  0  0  0  0999 V2000
    1.0570   -2.3740    0.0000 C   0  0  0  0  0  0  0  0  0  0  0  0
    2.2700   -3.2550    0.0000 C   0  0  0  0  0  0  0  0  0  0  0  0
    3.6410   -2.6450    0.0000 C   0  0  0  0  0  0  0  0  0  0  0  0
    3.7970   -1.1530    0.0000 C   0  0  0  0  0  0  0  0  0  0  0  0
    2.5840   -0.2720    0.0000 C   0  0  0  0  0  0  0  0  0  0  0  0
    1.2140   -0.8820    0.0000 C   0  0  0  0  0  0  0  0  0  0  0  0
    0.0000    0.0000    0.0000 C   0  0  0  0  0  0  0  0  0  0  0  0
    0.0000    1.5000    0.0000 N   0  0  0  0  0  0  0  0  0  0  0  0
   -1.4270    1.9640    0.0000 C   0  0  0  0  0  0  0  0  0  0  0  0
   -2.3080    0.7500    0.0000 C   0  0  0  0  0  0  0  0  0  0  0  0
   -1.4270   -0.4640    0.0000 S   0  0  0  0  0  0  0  0  0  0  0  0
   -1.8900    3.3900    0.0000 C   0  0  0  0  0  0  0  0  0  0  0  0
   -3.3570    3.7020    0.0000 C   0  0  0  0  0  0  0  0  0  0  0  0
   -3.8210    5.1290    0.0000 O   0  0  0  0  0  0  0  0  0  0  0  0
   -4.3610    2.5870    0.0000 O   0  0  0  0  0  0  0  0  0  0  0  0
    4.8540   -3.5270    0.0000 Cl  0  0  0  0  0  0  0  0  0  0  0  0
  1  2  1  0  0  0  0
  1  6  2  0  0  0  0
  2  3  2  0  0  0  0
  3  4  1  0  0  0  0
  3 16  1  0  0  0  0
  4  5  2  0  0  0  0
  5  6  1  0  0  0  0
  6  7  1  0  0  0  0
  7  8  2  0  0  0  0
  7 11  1  0  0  0  0
  8  9  1  0  0  0  0
  9 10  2  0  0  0  0
  9 12  1  0  0  0  0
 10 11  1  0  0  0  0
 12 13  1  0  0  0  0
 13 14  2  0  0  0  0
 13 15  1  0  0  0  0
M  END
>  <n>
358

>  <SMILES>
Clc1ccc(cc1)-c1scc(n1)CC(O)=O

>  <IC50>
>1000

>  <Class>
0

>  <NAME>
FENCLOZIC ACID

>  <INCHI_KEY>
APBSKHYXXKHJFK-UHFFFAOYSA-N

>  <Reference>
Mitigating, Dawson

$$$$
FENOBAM
  MOE2013           2D

 18 19  0  0  0  0  0  0  0  0999 V2000
    1.2140   -0.8820    0.0000 C   0  0  0  0  0  0  0  0  0  0  0  0
    0.0000    0.0000    0.0000 N   0  0  0  0  0  0  0  0  0  0  0  0
    0.0000    1.5000    0.0000 C   0  0  0  0  0  0  0  0  0  0  0  0
   -1.4270    1.9640    0.0000 C   0  0  0  0  0  0  0  0  0  0  0  0
   -1.8900    3.3900    0.0000 O   0  0  0  0  0  0  0  0  0  0  0  0
   -2.3080    0.7500    0.0000 N   0  0  0  0  0  0  0  0  0  0  0  0
   -1.4270   -0.4640    0.0000 C   0  0  0  0  0  0  0  0  0  0  0  0
   -1.8900   -1.8900    0.0000 N   0  0  0  0  0  0  0  0  0  0  0  0
   -3.3570   -2.2020    0.0000 C   0  0  0  0  0  0  0  0  0  0  0  0
   -4.3610   -1.0870    0.0000 O   0  0  0  0  0  0  0  0  0  0  0  0
   -3.8210   -3.6290    0.0000 N   0  0  0  0  0  0  0  0  0  0  0  0
   -5.2880   -3.9400    0.0000 C   0  0  0  0  0  0  0  0  0  0  0  0
   -6.2920   -2.8260    0.0000 C   0  0  0  0  0  0  0  0  0  0  0  0
   -7.7590   -3.1380    0.0000 C   0  0  0  0  0  0  0  0  0  0  0  0
   -8.2220   -4.5640    0.0000 C   0  0  0  0  0  0  0  0  0  0  0  0
   -7.2190   -5.6790    0.0000 C   0  0  0  0  0  0  0  0  0  0  0  0
   -5.7520   -5.3670    0.0000 C   0  0  0  0  0  0  0  0  0  0  0  0
   -7.6820   -7.1060    0.0000 Cl  0  0  0  0  0  0  0  0  0  0  0  0
  1  2  1  0  0  0  0
  2  3  1  0  0  0  0
  2  7  1  0  0  0  0
  3  4  1  0  0  0  0
  4  5  2  0  0  0  0
  4  6  1  0  0  0  0
  6  7  2  0  0  0  0
  7  8  1  0  0  0  0
  8  9  1  0  0  0  0
  9 10  2  0  0  0  0
  9 11  1  0  0  0  0
 11 12  1  0  0  0  0
 12 13  1  0  0  0  0
 12 17  2  0  0  0  0
 13 14  2  0  0  0  0
 14 15  1  0  0  0  0
 15 16  2  0  0  0  0
 16 17  1  0  0  0  0
 16 18  1  0  0  0  0
M  END
>  <n>
359

>  <SMILES>
Clc1cc(NC(=O)NC2=NC(=O)CN2C)ccc1

>  <IC50>
>1000

>  <Class>
0

>  <NAME>
FENOBAM

>  <INCHI_KEY>
DWPQODZAOSWNHB-UHFFFAOYSA-N

>  <Reference>
Mitigating the inhibition of human Bile Salt Export Pump by drugs_ opportunities provided by physicochemical property modulation,  in-silico modeling and structural modification_SI

$$$$
FENOLDOPAM
  MOE2013           2D

 21 23  0  0  1  0  0  0  0  0999 V2000
    1.9380    4.9180    0.0000 C   0  0  0  0  0  0  0  0  0  0  0  0
    1.6050    6.3800    0.0000 C   0  0  0  0  0  0  0  0  0  0  0  0
    0.1710    6.8220    0.0000 C   0  0  0  0  0  0  0  0  0  0  0  0
   -0.9280    5.8020    0.0000 C   0  0  0  0  0  0  0  0  0  0  0  0
   -0.5940    4.3400    0.0000 C   0  0  0  0  0  0  0  0  0  0  0  0
    0.8390    3.8980    0.0000 C   0  0  0  0  0  0  0  0  0  0  0  0
    1.1730    2.4350    0.0000 C   0  0  3  0  0  0  0  0  0  0  0  0
    2.6350    2.1020    0.0000 C   0  0  0  0  0  0  0  0  0  0  0  0
    3.2860    0.7500    0.0000 N   0  0  0  0  0  0  0  0  0  0  0  0
    2.6350   -0.6020    0.0000 C   0  0  0  0  0  0  0  0  0  0  0  0
    1.1730   -0.9350    0.0000 C   0  0  0  0  0  0  0  0  0  0  0  0
    0.0000    0.0000    0.0000 C   0  0  0  0  0  0  0  0  0  0  0  0
    0.0000    1.5000    0.0000 C   0  0  0  0  0  0  0  0  0  0  0  0
   -1.2990    2.2500    0.0000 C   0  0  0  0  0  0  0  0  0  0  0  0
   -2.5980    1.5000    0.0000 C   0  0  0  0  0  0  0  0  0  0  0  0
   -2.5980    0.0000    0.0000 C   0  0  0  0  0  0  0  0  0  0  0  0
   -1.2990   -0.7500    0.0000 C   0  0  0  0  0  0  0  0  0  0  0  0
   -1.2990   -2.2500    0.0000 Cl  0  0  0  0  0  0  0  0  0  0  0  0
   -3.8970   -0.7500    0.0000 O   0  0  0  0  0  0  0  0  0  0  0  0
   -3.8970    2.2500    0.0000 O   0  0  0  0  0  0  0  0  0  0  0  0
   -0.1620    8.2850    0.0000 O   0  0  0  0  0  0  0  0  0  0  0  0
  1  2  1  0  0  0  0
  1  6  2  0  0  0  0
  2  3  2  0  0  0  0
  3  4  1  0  0  0  0
  3 21  1  0  0  0  0
  4  5  2  0  0  0  0
  5  6  1  0  0  0  0
  6  7  1  0  0  0  0
  7  8  1  0  0  0  0
  7 13  1  0  0  0  0
  8  9  1  0  0  0  0
  9 10  1  0  0  0  0
 10 11  1  0  0  0  0
 11 12  1  0  0  0  0
 12 13  1  0  0  0  0
 12 17  2  0  0  0  0
 13 14  2  0  0  0  0
 14 15  1  0  0  0  0
 15 16  2  0  0  0  0
 15 20  1  0  0  0  0
 16 17  1  0  0  0  0
 16 19  1  0  0  0  0
 17 18  1  0  0  0  0
M  END
>  <n>
360

>  <SMILES>
Clc1c2c(cc(O)c1O)C(CNCC2)c1ccc(O)cc1

>  <IC50>
>1000

>  <Class>
0

>  <NAME>
FENOLDOPAM

>  <INCHI_KEY>
TVURRHSHRRELCG-UHFFFAOYSA-N

>  <Reference>
Mitigating the inhibition of human Bile Salt Export Pump by drugs_ opportunities provided by physicochemical property modulation,  in-silico modeling and structural modification_SI

$$$$
FENOTEROL
  MOE2013           2D

 22 23  0  0  1  0  0  0  0  0999 V2000
    0.0000   -3.0000    0.0000 C   0  0  0  0  0  0  0  0  0  0  0  0
    1.2990   -2.2500    0.0000 C   0  0  3  0  0  0  0  0  0  0  0  0
    1.2990   -0.7500    0.0000 C   0  0  0  0  0  0  0  0  0  0  0  0
    0.0000    0.0000    0.0000 C   0  0  0  0  0  0  0  0  0  0  0  0
    0.0000    1.5000    0.0000 C   0  0  0  0  0  0  0  0  0  0  0  0
   -1.2990    2.2500    0.0000 C   0  0  0  0  0  0  0  0  0  0  0  0
   -2.5980    1.5000    0.0000 C   0  0  0  0  0  0  0  0  0  0  0  0
   -2.5980    0.0000    0.0000 C   0  0  0  0  0  0  0  0  0  0  0  0
   -1.2990   -0.7500    0.0000 C   0  0  0  0  0  0  0  0  0  0  0  0
   -3.8970    2.2500    0.0000 O   0  0  0  0  0  0  0  0  0  0  0  0
    2.5980   -3.0000    0.0000 N   0  0  0  0  0  0  0  0  0  0  0  0
    2.5980   -4.5000    0.0000 C   0  0  0  0  0  0  0  0  0  0  0  0
    3.8970   -5.2500    0.0000 C   0  0  3  0  0  0  0  0  0  0  0  0
    3.8970   -6.7500    0.0000 C   0  0  0  0  0  0  0  0  0  0  0  0
    2.5980   -7.5000    0.0000 C   0  0  0  0  0  0  0  0  0  0  0  0
    2.5980   -9.0000    0.0000 C   0  0  0  0  0  0  0  0  0  0  0  0
    3.8970   -9.7500    0.0000 C   0  0  0  0  0  0  0  0  0  0  0  0
    5.1960   -9.0000    0.0000 C   0  0  0  0  0  0  0  0  0  0  0  0
    5.1960   -7.5000    0.0000 C   0  0  0  0  0  0  0  0  0  0  0  0
    6.4950   -9.7500    0.0000 O   0  0  0  0  0  0  0  0  0  0  0  0
    1.2990   -9.7500    0.0000 O   0  0  0  0  0  0  0  0  0  0  0  0
    5.1960   -4.5000    0.0000 O   0  0  0  0  0  0  0  0  0  0  0  0
  1  2  1  0  0  0  0
  2  3  1  0  0  0  0
  2 11  1  0  0  0  0
  3  4  1  0  0  0  0
  4  5  1  0  0  0  0
  4  9  2  0  0  0  0
  5  6  2  0  0  0  0
  6  7  1  0  0  0  0
  7  8  2  0  0  0  0
  7 10  1  0  0  0  0
  8  9  1  0  0  0  0
 11 12  1  0  0  0  0
 12 13  1  0  0  0  0
 13 14  1  0  0  0  0
 13 22  1  0  0  0  0
 14 15  1  0  0  0  0
 14 19  2  0  0  0  0
 15 16  2  0  0  0  0
 16 17  1  0  0  0  0
 16 21  1  0  0  0  0
 17 18  2  0  0  0  0
 18 19  1  0  0  0  0
 18 20  1  0  0  0  0
M  END
>  <n>
361

>  <SMILES>
Oc1cc(cc(O)c1)C(O)CNC(Cc1ccc(O)cc1)C

>  <IC50>
>1000

>  <Class>
0

>  <NAME>
FENOTEROL

>  <INCHI_KEY>
LSLYOANBFKQKPT-UHFFFAOYSA-N

>  <Reference>
Mitigating the inhibition of human Bile Salt Export Pump by drugs_ opportunities provided by physicochemical property modulation,  in-silico modeling and structural modification_SI

$$$$
Fialuridine
  MOE2013           2D

 18 19  0  0  1  0  0  0  0  0999 V2000
    1.2140   -0.8820    0.0000 C   0  0  0  0  0  0  0  0  0  0  0  0
    0.0000    0.0000    0.0000 C   0  0  3  0  0  0  0  0  0  0  0  0
    0.0000    1.5000    0.0000 O   0  0  0  0  0  0  0  0  0  0  0  0
   -1.4270    1.9640    0.0000 C   0  0  3  0  0  0  0  0  0  0  0  0
   -1.8900    3.3900    0.0000 N   0  0  0  0  0  0  0  0  0  0  0  0
   -0.8860    4.5050    0.0000 C   0  0  0  0  0  0  0  0  0  0  0  0
   -1.3500    5.9310    0.0000 N   0  0  0  0  0  0  0  0  0  0  0  0
   -2.8170    6.2430    0.0000 C   0  0  0  0  0  0  0  0  0  0  0  0
   -3.2810    7.6700    0.0000 O   0  0  0  0  0  0  0  0  0  0  0  0
   -3.8210    5.1290    0.0000 C   0  0  0  0  0  0  0  0  0  0  0  0
   -3.3570    3.7020    0.0000 C   0  0  0  0  0  0  0  0  0  0  0  0
   -5.2880    5.4400    0.0000 I   0  0  0  0  0  0  0  0  0  0  0  0
    0.5810    4.1930    0.0000 O   0  0  0  0  0  0  0  0  0  0  0  0
   -2.3080    0.7500    0.0000 C   0  0  3  0  0  0  0  0  0  0  0  0
   -1.4270   -0.4640    0.0000 C   0  0  3  0  0  0  0  0  0  0  0  0
   -1.8900   -1.8900    0.0000 O   0  0  0  0  0  0  0  0  0  0  0  0
   -3.8080    0.7500    0.0000 F   0  0  0  0  0  0  0  0  0  0  0  0
    1.0570   -2.3740    0.0000 O   0  0  0  0  0  0  0  0  0  0  0  0
  1  2  1  0  0  0  0
  1 18  1  0  0  0  0
  2  3  1  0  0  0  0
  2 15  1  0  0  0  0
  3  4  1  0  0  0  0
  4  5  1  0  0  0  0
  4 14  1  0  0  0  0
  5  6  1  0  0  0  0
  5 11  1  0  0  0  0
  6  7  1  0  0  0  0
  6 13  2  0  0  0  0
  7  8  1  0  0  0  0
  8  9  2  0  0  0  0
  8 10  1  0  0  0  0
 10 11  2  0  0  0  0
 10 12  1  0  0  0  0
 14 15  1  0  0  0  0
 14 17  1  0  0  0  0
 15 16  1  0  0  0  0
M  END
>  <n>
35

>  <IC50>
>1000

>  <Class>
0

>  <NAME>
FIALURIDINE

>  <INCHI_KEY>
IPVFGAYTKQKGBM-UHFFFAOYSA-N

>  <Reference>
Dawson

$$$$
FLECAINIDE
  MOE2013           2D

 28 29  0  0  1  0  0  0  0  0999 V2000
    0.0000    0.0000    0.0000 C   0  0  0  0  0  0  0  0  0  0  0  0
    0.0000    1.5000    0.0000 C   0  0  0  0  0  0  0  0  0  0  0  0
   -1.2990    2.2500    0.0000 C   0  0  0  0  0  0  0  0  0  0  0  0
   -2.5980    1.5000    0.0000 C   0  0  0  0  0  0  0  0  0  0  0  0
   -2.5980    0.0000    0.0000 C   0  0  0  0  0  0  0  0  0  0  0  0
   -1.2990   -0.7500    0.0000 C   0  0  0  0  0  0  0  0  0  0  0  0
   -1.2990   -2.2500    0.0000 O   0  0  0  0  0  0  0  0  0  0  0  0
    0.0000   -3.0000    0.0000 C   0  0  0  0  0  0  0  0  0  0  0  0
    0.0000   -4.5000    0.0000 C   0  0  0  0  0  0  0  0  0  0  0  0
    1.2990   -5.2500    0.0000 F   0  0  0  0  0  0  0  0  0  0  0  0
   -1.4770   -4.2400    0.0000 F   0  0  0  0  0  0  0  0  0  0  0  0
   -0.5130   -5.9100    0.0000 F   0  0  0  0  0  0  0  0  0  0  0  0
   -3.8970    2.2500    0.0000 C   0  0  0  0  0  0  0  0  0  0  0  0
   -5.1960    1.5000    0.0000 O   0  0  0  0  0  0  0  0  0  0  0  0
   -3.8970    3.7500    0.0000 N   0  0  0  0  0  0  0  0  0  0  0  0
   -5.1960    4.5000    0.0000 C   0  0  0  0  0  0  0  0  0  0  0  0
   -5.1960    6.0000    0.0000 C   0  0  3  0  0  0  0  0  0  0  0  0
   -3.8970    6.7500    0.0000 C   0  0  0  0  0  0  0  0  0  0  0  0
   -3.8970    8.2500    0.0000 C   0  0  0  0  0  0  0  0  0  0  0  0
   -5.1960    9.0000    0.0000 C   0  0  0  0  0  0  0  0  0  0  0  0
   -6.4950    8.2500    0.0000 C   0  0  0  0  0  0  0  0  0  0  0  0
   -6.4950    6.7500    0.0000 N   0  0  0  0  0  0  0  0  0  0  0  0
   -1.2990    3.7500    0.0000 O   0  0  0  0  0  0  0  0  0  0  0  0
    0.0000    4.5000    0.0000 C   0  0  0  0  0  0  0  0  0  0  0  0
    0.0000    6.0000    0.0000 C   0  0  0  0  0  0  0  0  0  0  0  0
    1.2990    6.7500    0.0000 F   0  0  0  0  0  0  0  0  0  0  0  0
   -0.5130    7.4100    0.0000 F   0  0  0  0  0  0  0  0  0  0  0  0
   -1.4770    5.7400    0.0000 F   0  0  0  0  0  0  0  0  0  0  0  0
  1  2  1  0  0  0  0
  1  6  2  0  0  0  0
  2  3  2  0  0  0  0
  3  4  1  0  0  0  0
  3 23  1  0  0  0  0
  4  5  2  0  0  0  0
  4 13  1  0  0  0  0
  5  6  1  0  0  0  0
  6  7  1  0  0  0  0
  7  8  1  0  0  0  0
  8  9  1  0  0  0  0
  9 10  1  0  0  0  0
  9 11  1  0  0  0  0
  9 12  1  0  0  0  0
 13 14  2  0  0  0  0
 13 15  1  0  0  0  0
 15 16  1  0  0  0  0
 16 17  1  0  0  0  0
 17 18  1  0  0  0  0
 17 22  1  0  0  0  0
 18 19  1  0  0  0  0
 19 20  1  0  0  0  0
 20 21  1  0  0  0  0
 21 22  1  0  0  0  0
 23 24  1  0  0  0  0
 24 25  1  0  0  0  0
 25 26  1  0  0  0  0
 25 27  1  0  0  0  0
 25 28  1  0  0  0  0
M  END
>  <n>
362

>  <SMILES>
FC(F)(F)COc1ccc(OCC(F)(F)F)cc1C(=O)NCC1NCCCC1

>  <IC50>
217.6

>  <Class>
0

>  <NAME>
FLECAINIDE

>  <INCHI_KEY>
DJBNUMBKLMJRSA-UHFFFAOYSA-N

>  <Reference>
Mitigating the inhibition of human Bile Salt Export Pump by drugs_ opportunities provided by physicochemical property modulation,  in-silico modeling and structural modification_SI

$$$$
FLUDROXYCORTIDE
  MOE2013           2D

 31 35  0  0  1  0  0  0  0  0999 V2000
    3.8970    0.7500    0.0000 C   0  0  0  0  0  0  0  0  0  0  0  0
    3.8970    2.2500    0.0000 C   0  0  2  0  0  0  0  0  0  0  0  0
    5.1960    1.5000    0.0000 C   0  0  0  0  0  0  0  0  0  0  0  0
    6.4950    2.2500    0.0000 C   0  0  0  0  0  0  0  0  0  0  0  0
    6.4950    3.7500    0.0000 C   0  0  0  0  0  0  0  0  0  0  0  0
    7.7940    4.5000    0.0000 O   0  0  0  0  0  0  0  0  0  0  0  0
    5.1960    4.5000    0.0000 C   0  0  0  0  0  0  0  0  0  0  0  0
    3.8970    3.7500    0.0000 C   0  0  0  0  0  0  0  0  0  0  0  0
    2.5980    4.5000    0.0000 C   0  0  3  0  0  0  0  0  0  0  0  0
    1.2990    3.7500    0.0000 C   0  0  0  0  0  0  0  0  0  0  0  0
    1.2990    2.2500    0.0000 C   0  0  3  0  0  0  0  0  0  0  0  0
    2.5980    1.5000    0.0000 C   0  0  3  0  0  0  0  0  0  0  0  0
    2.5980    0.0000    0.0000 C   0  0  3  0  0  0  0  0  0  0  0  0
    1.2990   -0.7500    0.0000 C   0  0  0  0  0  0  0  0  0  0  0  0
    0.0000    0.0000    0.0000 C   0  0  1  0  0  0  0  0  0  0  0  0
    0.0000    1.5000    0.0000 C   0  0  3  0  0  0  0  0  0  0  0  0
   -1.4270    1.9640    0.0000 C   0  0  0  0  0  0  0  0  0  0  0  0
   -2.3080    0.7500    0.0000 C   0  0  3  0  0  0  0  0  0  0  0  0
   -1.4270   -0.4640    0.0000 C   0  0  1  0  0  0  0  0  0  0  0  0
   -2.3080   -1.6770    0.0000 O   0  0  0  0  0  0  0  0  0  0  0  0
   -3.7350   -1.2140    0.0000 C   0  0  0  0  0  0  0  0  0  0  0  0
   -3.7350    0.2860    0.0000 O   0  0  0  0  0  0  0  0  0  0  0  0
   -5.2270   -1.0570    0.0000 C   0  0  0  0  0  0  0  0  0  0  0  0
   -4.0470   -2.6810    0.0000 C   0  0  0  0  0  0  0  0  0  0  0  0
   -0.5450   -1.6770    0.0000 C   0  0  0  0  0  0  0  0  0  0  0  0
    0.9470   -1.5200    0.0000 O   0  0  0  0  0  0  0  0  0  0  0  0
   -1.1550   -3.0470    0.0000 C   0  0  0  0  0  0  0  0  0  0  0  0
   -2.6470   -3.2040    0.0000 O   0  0  0  0  0  0  0  0  0  0  0  0
   -0.1570   -1.4920    0.0000 C   0  0  0  0  0  0  0  0  0  0  0  0
    3.8970   -0.7500    0.0000 O   0  0  0  0  0  0  0  0  0  0  0  0
    2.5980    6.0000    0.0000 F   0  0  0  0  0  0  0  0  0  0  0  0
  2  1  1  1  0  0  0
  2  3  1  0  0  0  0
  2  8  1  0  0  0  0
  2 12  1  0  0  0  0
  3  4  1  0  0  0  0
  4  5  1  0  0  0  0
  5  6  2  0  0  0  0
  5  7  1  0  0  0  0
  7  8  2  0  0  0  0
  8  9  1  0  0  0  0
  9 10  1  0  0  0  0
  9 31  1  0  0  0  0
 10 11  1  0  0  0  0
 11 12  1  0  0  0  0
 11 16  1  0  0  0  0
 12 13  1  0  0  0  0
 13 14  1  0  0  0  0
 13 30  1  0  0  0  0
 14 15  1  0  0  0  0
 15 16  1  0  0  0  0
 15 19  1  0  0  0  0
 15 29  1  1  0  0  0
 16 17  1  0  0  0  0
 17 18  1  0  0  0  0
 18 19  1  0  0  0  0
 18 22  1  0  0  0  0
 19 20  1  0  0  0  0
 19 25  1  1  0  0  0
 20 21  1  0  0  0  0
 21 22  1  0  0  0  0
 21 23  1  0  0  0  0
 21 24  1  0  0  0  0
 25 26  2  0  0  0  0
 25 27  1  0  0  0  0
 27 28  1  0  0  0  0
M  END
>  <n>
364

>  <SMILES>
F[C@@H]1C2=CC(=O)CC[C@@]2([C@@H]2[C@H]([C@@H]3C[C@H]4OC(O[C@@]4(C(=O)CO)[C@]3(C[C@@H]2O)C)(C)C)C1)C

>  <IC50>
71.19

>  <Class>
0

>  <NAME>
FLUDROXYCORTIDE

>  <INCHI_KEY>
POPFMWWJOGLOIF-XWCQMRHXSA-N

>  <Reference>
Mitigating the inhibition of human Bile Salt Export Pump by drugs_ opportunities provided by physicochemical property modulation,  in-silico modeling and structural modification_SI

$$$$
FLUMAZENIL
  MOE2013           2D

 22 24  0  0  0  0  0  0  0  0999 V2000
    5.2880   -3.9400    0.0000 C   0  0  0  0  0  0  0  0  0  0  0  0
    3.8210   -3.6290    0.0000 C   0  0  0  0  0  0  0  0  0  0  0  0
    3.3570   -2.2020    0.0000 O   0  0  0  0  0  0  0  0  0  0  0  0
    1.8900   -1.8900    0.0000 C   0  0  0  0  0  0  0  0  0  0  0  0
    0.8860   -3.0050    0.0000 O   0  0  0  0  0  0  0  0  0  0  0  0
    1.4270   -0.4640    0.0000 C   0  0  0  0  0  0  0  0  0  0  0  0
    0.0000    0.0000    0.0000 C   0  0  0  0  0  0  0  0  0  0  0  0
    0.0000    1.5000    0.0000 N   0  0  0  0  0  0  0  0  0  0  0  0
    1.4270    1.9640    0.0000 C   0  0  0  0  0  0  0  0  0  0  0  0
    2.3080    0.7500    0.0000 N   0  0  0  0  0  0  0  0  0  0  0  0
   -1.1730    2.4350    0.0000 C   0  0  0  0  0  0  0  0  0  0  0  0
   -0.7310    3.8690    0.0000 C   0  0  0  0  0  0  0  0  0  0  0  0
   -1.7510    4.9680    0.0000 C   0  0  0  0  0  0  0  0  0  0  0  0
   -3.2130    4.6340    0.0000 C   0  0  0  0  0  0  0  0  0  0  0  0
   -3.6550    3.2010    0.0000 C   0  0  0  0  0  0  0  0  0  0  0  0
   -2.6350    2.1020    0.0000 C   0  0  0  0  0  0  0  0  0  0  0  0
   -3.2860    0.7500    0.0000 C   0  0  0  0  0  0  0  0  0  0  0  0
   -4.7860    0.7500    0.0000 O   0  0  0  0  0  0  0  0  0  0  0  0
   -2.6350   -0.6020    0.0000 N   0  0  0  0  0  0  0  0  0  0  0  0
   -1.1730   -0.9350    0.0000 C   0  0  0  0  0  0  0  0  0  0  0  0
   -3.5700   -1.7740    0.0000 C   0  0  0  0  0  0  0  0  0  0  0  0
   -4.2340    5.7340    0.0000 F   0  0  0  0  0  0  0  0  0  0  0  0
  1  2  1  0  0  0  0
  2  3  1  0  0  0  0
  3  4  1  0  0  0  0
  4  5  2  0  0  0  0
  4  6  1  0  0  0  0
  6  7  2  0  0  0  0
  6 10  1  0  0  0  0
  7  8  1  0  0  0  0
  7 20  1  0  0  0  0
  8  9  1  0  0  0  0
  8 11  1  0  0  0  0
  9 10  2  0  0  0  0
 11 12  1  0  0  0  0
 11 16  2  0  0  0  0
 12 13  2  0  0  0  0
 13 14  1  0  0  0  0
 14 15  2  0  0  0  0
 14 22  1  0  0  0  0
 15 16  1  0  0  0  0
 16 17  1  0  0  0  0
 17 18  2  0  0  0  0
 17 19  1  0  0  0  0
 19 20  1  0  0  0  0
 19 21  1  0  0  0  0
M  END
>  <n>
365

>  <SMILES>
Fc1cc2c(-n3c(CN(C)C2=O)c(nc3)C(OCC)=O)cc1

>  <IC50>
>733.5

>  <Class>
0

>  <NAME>
FLUMAZENIL

>  <INCHI_KEY>
OFBIFZUFASYYRE-UHFFFAOYSA-N

>  <Reference>
Mitigating, Dawson

$$$$
FLUMETASONE
  MOE2013           2D

 29 32  0  0  1  0  0  0  0  0999 V2000
    1.2550   -3.6730    0.0000 C   0  0  0  0  0  0  0  0  0  0  0  0
    0.5050   -2.3740    0.0000 C   0  0  3  0  0  0  0  0  0  0  0  0
    1.1150   -1.0040    0.0000 C   0  0  0  0  0  0  0  0  0  0  0  0
    0.0000    0.0000    0.0000 C   0  0  3  0  0  0  0  0  0  0  0  0
    0.0000    1.5000    0.0000 C   0  0  3  0  0  0  0  0  0  0  0  0
    1.2990    2.2500    0.0000 C   0  0  0  0  0  0  0  0  0  0  0  0
    1.2990    3.7500    0.0000 C   0  0  3  0  0  0  0  0  0  0  0  0
    0.0000    4.5000    0.0000 C   0  0  0  0  0  0  0  0  0  0  0  0
    0.0000    6.0000    0.0000 C   0  0  0  0  0  0  0  0  0  0  0  0
   -1.2990    6.7500    0.0000 C   0  0  0  0  0  0  0  0  0  0  0  0
   -1.2990    8.2500    0.0000 O   0  0  0  0  0  0  0  0  0  0  0  0
   -2.5980    6.0000    0.0000 C   0  0  0  0  0  0  0  0  0  0  0  0
   -2.5980    4.5000    0.0000 C   0  0  0  0  0  0  0  0  0  0  0  0
   -1.2990    3.7500    0.0000 C   0  0  2  0  0  0  0  0  0  0  0  0
   -1.2990    2.2500    0.0000 C   0  0  1  0  0  0  0  0  0  0  0  0
   -2.5980    1.5000    0.0000 C   0  0  3  0  0  0  0  0  0  0  0  0
   -2.5980    0.0000    0.0000 C   0  0  0  0  0  0  0  0  0  0  0  0
   -1.2990   -0.7500    0.0000 C   0  0  2  0  0  0  0  0  0  0  0  0
   -0.9870   -2.2170    0.0000 C   0  0  1  0  0  0  0  0  0  0  0  0
   -2.4790   -2.3740    0.0000 C   0  0  0  0  0  0  0  0  0  0  0  0
   -3.3610   -1.1600    0.0000 O   0  0  0  0  0  0  0  0  0  0  0  0
   -3.0890   -3.7440    0.0000 C   0  0  0  0  0  0  0  0  0  0  0  0
   -2.2070   -4.9580    0.0000 O   0  0  0  0  0  0  0  0  0  0  0  0
   -0.9870   -3.7170    0.0000 O   0  0  0  0  0  0  0  0  0  0  0  0
   -2.5130   -1.6320    0.0000 C   0  0  0  0  0  0  0  0  0  0  0  0
   -3.8970    2.2500    0.0000 O   0  0  0  0  0  0  0  0  0  0  0  0
   -2.5980    3.0000    0.0000 F   0  0  0  0  0  0  0  0  0  0  0  0
   -2.5980    3.0000    0.0000 C   0  0  0  0  0  0  0  0  0  0  0  0
    2.5980    4.5000    0.0000 F   0  0  0  0  0  0  0  0  0  0  0  0
  1  2  1  0  0  0  0
  2  3  1  0  0  0  0
  2 19  1  0  0  0  0
  3  4  1  0  0  0  0
  4  5  1  0  0  0  0
  4 18  1  0  0  0  0
  5  6  1  0  0  0  0
  5 15  1  0  0  0  0
  6  7  1  0  0  0  0
  7  8  1  0  0  0  0
  7 29  1  0  0  0  0
  8  9  2  0  0  0  0
  8 14  1  0  0  0  0
  9 10  1  0  0  0  0
 10 11  2  0  0  0  0
 10 12  1  0  0  0  0
 12 13  2  0  0  0  0
 13 14  1  0  0  0  0
 14 15  1  0  0  0  0
 14 28  1  6  0  0  0
 15 16  1  0  0  0  0
 15 27  1  1  0  0  0
 16 17  1  0  0  0  0
 16 26  1  0  0  0  0
 17 18  1  0  0  0  0
 18 19  1  0  0  0  0
 18 25  1  6  0  0  0
 19 20  1  6  0  0  0
 19 24  1  1  0  0  0
 20 21  2  0  0  0  0
 20 22  1  0  0  0  0
 22 23  1  0  0  0  0
M  END
>  <n>
366

>  <SMILES>
F[C@@]12[C@H]([C@@H]3C[C@@H](C)[C@](O)(C(=O)CO)[C@]3(C[C@@H]1O)C)C[C@H](F)C1=CC(=O)C=C[C@@]12C

>  <IC50>
68.46

>  <Class>
0

>  <NAME>
FLUMETASONE

>  <INCHI_KEY>
WXURHACBFYSXBI-GQKYHHCASA-N

>  <Reference>
Mitigating the inhibition of human Bile Salt Export Pump by drugs_ opportunities provided by physicochemical property modulation,  in-silico modeling and structural modification_SI

$$$$
FLUNARIZINE
  MOE2013           2D

 30 33  0  0  0  0  0  0  0  0999 V2000
    0.0000    0.0000    0.0000 C   0  0  0  0  0  0  0  0  0  0  0  0
    0.0000    1.5000    0.0000 C   0  0  0  0  0  0  0  0  0  0  0  0
   -1.2990    2.2500    0.0000 C   0  0  0  0  0  0  0  0  0  0  0  0
   -2.5980    1.5000    0.0000 C   0  0  0  0  0  0  0  0  0  0  0  0
   -2.5980    0.0000    0.0000 C   0  0  0  0  0  0  0  0  0  0  0  0
   -1.2990   -0.7500    0.0000 C   0  0  0  0  0  0  0  0  0  0  0  0
   -3.8970    2.2500    0.0000 C   0  0  0  0  0  0  0  0  0  0  0  0
   -5.1960    1.5000    0.0000 C   0  0  0  0  0  0  0  0  0  0  0  0
   -6.4950    2.2500    0.0000 C   0  0  0  0  0  0  0  0  0  0  0  0
   -7.7940    1.5000    0.0000 N   0  0  0  0  0  0  0  0  0  0  0  0
   -9.0930    2.2500    0.0000 C   0  0  0  0  0  0  0  0  0  0  0  0
  -10.3920    1.5000    0.0000 C   0  0  0  0  0  0  0  0  0  0  0  0
  -10.3920    0.0000    0.0000 N   0  0  0  0  0  0  0  0  0  0  0  0
   -9.0930   -0.7500    0.0000 C   0  0  0  0  0  0  0  0  0  0  0  0
   -7.7940    0.0000    0.0000 C   0  0  0  0  0  0  0  0  0  0  0  0
  -11.6910   -0.7500    0.0000 C   0  0  0  0  0  0  0  0  0  0  0  0
  -12.9900    0.0000    0.0000 C   0  0  0  0  0  0  0  0  0  0  0  0
  -12.9900    1.5000    0.0000 C   0  0  0  0  0  0  0  0  0  0  0  0
  -14.2890    2.2500    0.0000 C   0  0  0  0  0  0  0  0  0  0  0  0
  -15.5880    1.5000    0.0000 C   0  0  0  0  0  0  0  0  0  0  0  0
  -15.5880    0.0000    0.0000 C   0  0  0  0  0  0  0  0  0  0  0  0
  -14.2890   -0.7500    0.0000 C   0  0  0  0  0  0  0  0  0  0  0  0
  -16.8880    2.2500    0.0000 F   0  0  0  0  0  0  0  0  0  0  0  0
  -11.6910   -2.2500    0.0000 C   0  0  0  0  0  0  0  0  0  0  0  0
  -12.9900   -3.0000    0.0000 C   0  0  0  0  0  0  0  0  0  0  0  0
  -12.9900   -4.5000    0.0000 C   0  0  0  0  0  0  0  0  0  0  0  0
  -11.6910   -5.2500    0.0000 C   0  0  0  0  0  0  0  0  0  0  0  0
  -10.3920   -4.5000    0.0000 C   0  0  0  0  0  0  0  0  0  0  0  0
  -10.3920   -3.0000    0.0000 C   0  0  0  0  0  0  0  0  0  0  0  0
  -11.6910   -6.7500    0.0000 F   0  0  0  0  0  0  0  0  0  0  0  0
  1  2  2  0  0  0  0
  1  6  1  0  0  0  0
  2  3  1  0  0  0  0
  3  4  2  0  0  0  0
  4  5  1  0  0  0  0
  4  7  1  0  0  0  0
  5  6  2  0  0  0  0
  7  8  2  0  0  0  0
  8  9  1  0  0  0  0
  9 10  1  0  0  0  0
 10 11  1  0  0  0  0
 10 15  1  0  0  0  0
 11 12  1  0  0  0  0
 12 13  1  0  0  0  0
 13 14  1  0  0  0  0
 13 16  1  0  0  0  0
 14 15  1  0  0  0  0
 16 17  1  0  0  0  0
 16 24  1  0  0  0  0
 17 18  1  0  0  0  0
 17 22  2  0  0  0  0
 18 19  2  0  0  0  0
 19 20  1  0  0  0  0
 20 21  2  0  0  0  0
 20 23  1  0  0  0  0
 21 22  1  0  0  0  0
 24 25  1  0  0  0  0
 24 29  2  0  0  0  0
 25 26  2  0  0  0  0
 26 27  1  0  0  0  0
 27 28  2  0  0  0  0
 27 30  1  0  0  0  0
 28 29  1  0  0  0  0
M  END
>  <n>
367

>  <SMILES>
Fc1ccc(cc1)C(N1CCN(CC1)C\C=C\c1ccccc1)c1ccc(F)cc1

>  <IC50>
<10

>  <Class>
1

>  <NAME>
FLUNARIZINE

>  <INCHI_KEY>
SMANXXCATUTDDT-QPJJXVBHSA-N

>  <Reference>
Mitigating the inhibition of human Bile Salt Export Pump by drugs_ opportunities provided by physicochemical property modulation,  in-silico modeling and structural modification_SI

$$$$
FLUOROMETHOLONE
  MOE2013           2D

 27 30  0  0  1  0  0  0  0  0999 V2000
    2.5980   -3.0000    0.0000 C   0  0  0  0  0  0  0  0  0  0  0  0
    1.2990   -2.2500    0.0000 C   0  0  3  0  0  0  0  0  0  0  0  0
    1.2990   -0.7500    0.0000 C   0  0  0  0  0  0  0  0  0  0  0  0
    0.0000    0.0000    0.0000 C   0  0  3  0  0  0  0  0  0  0  0  0
    0.0000    1.5000    0.0000 C   0  0  3  0  0  0  0  0  0  0  0  0
    1.1150    2.5040    0.0000 C   0  0  0  0  0  0  0  0  0  0  0  0
    0.5050    3.8740    0.0000 C   0  0  0  0  0  0  0  0  0  0  0  0
   -0.9870    3.7170    0.0000 C   0  0  1  0  0  0  0  0  0  0  0  0
   -1.2990    2.2500    0.0000 C   0  0  1  0  0  0  0  0  0  0  0  0
   -2.5980    1.5000    0.0000 C   0  0  0  0  0  0  0  0  0  0  0  0
   -2.5980    0.0000    0.0000 C   0  0  3  0  0  0  0  0  0  0  0  0
   -1.2990   -0.7500    0.0000 C   0  0  2  0  0  0  0  0  0  0  0  0
   -1.2990   -2.2500    0.0000 C   0  0  2  0  0  0  0  0  0  0  0  0
    0.0000   -3.0000    0.0000 C   0  0  0  0  0  0  0  0  0  0  0  0
    0.0000   -4.5000    0.0000 C   0  0  0  0  0  0  0  0  0  0  0  0
   -1.2990   -5.2500    0.0000 C   0  0  0  0  0  0  0  0  0  0  0  0
   -1.2990   -6.7500    0.0000 O   0  0  0  0  0  0  0  0  0  0  0  0
   -2.5980   -4.5000    0.0000 C   0  0  0  0  0  0  0  0  0  0  0  0
   -2.5980   -3.0000    0.0000 C   0  0  0  0  0  0  0  0  0  0  0  0
   -2.5980   -1.5000    0.0000 C   0  0  0  0  0  0  0  0  0  0  0  0
   -2.5980   -1.5000    0.0000 F   0  0  0  0  0  0  0  0  0  0  0  0
   -3.8970   -0.7500    0.0000 O   0  0  0  0  0  0  0  0  0  0  0  0
   -2.5130    3.1320    0.0000 C   0  0  0  0  0  0  0  0  0  0  0  0
   -0.9870    5.2170    0.0000 C   0  0  0  0  0  0  0  0  0  0  0  0
    0.3120    5.9670    0.0000 O   0  0  0  0  0  0  0  0  0  0  0  0
   -2.2860    5.9670    0.0000 C   0  0  0  0  0  0  0  0  0  0  0  0
   -2.4790    3.8740    0.0000 O   0  0  0  0  0  0  0  0  0  0  0  0
  1  2  1  0  0  0  0
  2  3  1  0  0  0  0
  2 14  1  0  0  0  0
  3  4  1  0  0  0  0
  4  5  1  0  0  0  0
  4 12  1  0  0  0  0
  5  6  1  0  0  0  0
  5  9  1  0  0  0  0
  6  7  1  0  0  0  0
  7  8  1  0  0  0  0
  8  9  1  0  0  0  0
  8 24  1  1  0  0  0
  8 27  1  6  0  0  0
  9 10  1  0  0  0  0
  9 23  1  1  0  0  0
 10 11  1  0  0  0  0
 11 12  1  0  0  0  0
 11 22  1  0  0  0  0
 12 13  1  0  0  0  0
 12 21  1  6  0  0  0
 13 14  1  0  0  0  0
 13 19  1  0  0  0  0
 13 20  1  1  0  0  0
 14 15  2  0  0  0  0
 15 16  1  0  0  0  0
 16 17  2  0  0  0  0
 16 18  1  0  0  0  0
 18 19  2  0  0  0  0
 24 25  2  0  0  0  0
 24 26  1  0  0  0  0
M  END
>  <n>
368

>  <SMILES>
F[C@@]12[C@H]([C@@H]3CC[C@](O)(C(=O)C)[C@]3(C[C@@H]1O)C)C[C@@H](C1=CC(=O)C=C[C@@]12C)C

>  <IC50>
100.9

>  <Class>
0

>  <NAME>
FLUOROMETHOLONE

>  <INCHI_KEY>
FAOZLTXFLGPHNG-KNAQIMQKSA-N

>  <Reference>
Mitigating the inhibition of human Bile Salt Export Pump by drugs_ opportunities provided by physicochemical property modulation,  in-silico modeling and structural modification_SI

$$$$
FLUOXETINE
  MOE2013           2D

 22 23  0  0  1  0  0  0  0  0999 V2000
    3.8970   -6.7500    0.0000 C   0  0  0  0  0  0  0  0  0  0  0  0
    3.8970   -5.2500    0.0000 N   0  0  0  0  0  0  0  0  0  0  0  0
    2.5980   -4.5000    0.0000 C   0  0  0  0  0  0  0  0  0  0  0  0
    2.5980   -3.0000    0.0000 C   0  0  0  0  0  0  0  0  0  0  0  0
    1.2990   -2.2500    0.0000 C   0  0  3  0  0  0  0  0  0  0  0  0
    0.0000   -3.0000    0.0000 C   0  0  0  0  0  0  0  0  0  0  0  0
   -1.2990   -2.2500    0.0000 C   0  0  0  0  0  0  0  0  0  0  0  0
   -2.5980   -3.0000    0.0000 C   0  0  0  0  0  0  0  0  0  0  0  0
   -2.5980   -4.5000    0.0000 C   0  0  0  0  0  0  0  0  0  0  0  0
   -1.2990   -5.2500    0.0000 C   0  0  0  0  0  0  0  0  0  0  0  0
    0.0000   -4.5000    0.0000 C   0  0  0  0  0  0  0  0  0  0  0  0
    1.2990   -0.7500    0.0000 O   0  0  0  0  0  0  0  0  0  0  0  0
    0.0000    0.0000    0.0000 C   0  0  0  0  0  0  0  0  0  0  0  0
    0.0000    1.5000    0.0000 C   0  0  0  0  0  0  0  0  0  0  0  0
   -1.2990    2.2500    0.0000 C   0  0  0  0  0  0  0  0  0  0  0  0
   -2.5980    1.5000    0.0000 C   0  0  0  0  0  0  0  0  0  0  0  0
   -2.5980    0.0000    0.0000 C   0  0  0  0  0  0  0  0  0  0  0  0
   -1.2990   -0.7500    0.0000 C   0  0  0  0  0  0  0  0  0  0  0  0
   -3.8970    2.2500    0.0000 C   0  0  0  0  0  0  0  0  0  0  0  0
   -3.8970    3.7500    0.0000 F   0  0  0  0  0  0  0  0  0  0  0  0
   -5.3740    2.5100    0.0000 F   0  0  0  0  0  0  0  0  0  0  0  0
   -4.4100    0.8400    0.0000 F   0  0  0  0  0  0  0  0  0  0  0  0
  1  2  1  0  0  0  0
  2  3  1  0  0  0  0
  3  4  1  0  0  0  0
  4  5  1  0  0  0  0
  5  6  1  0  0  0  0
  5 12  1  0  0  0  0
  6  7  1  0  0  0  0
  6 11  2  0  0  0  0
  7  8  2  0  0  0  0
  8  9  1  0  0  0  0
  9 10  2  0  0  0  0
 10 11  1  0  0  0  0
 12 13  1  0  0  0  0
 13 14  1  0  0  0  0
 13 18  2  0  0  0  0
 14 15  2  0  0  0  0
 15 16  1  0  0  0  0
 16 17  2  0  0  0  0
 16 19  1  0  0  0  0
 17 18  1  0  0  0  0
 19 20  1  0  0  0  0
 19 21  1  0  0  0  0
 19 22  1  0  0  0  0
M  END
>  <n>
369

>  <SMILES>
FC(F)(F)c1ccc(OC(CCNC)c2ccccc2)cc1

>  <IC50>
143.8

>  <Class>
0

>  <NAME>
FLUOXETINE

>  <INCHI_KEY>
RTHCYVBBDHJXIQ-UHFFFAOYSA-N

>  <Reference>
Mitigating the inhibition of human Bile Salt Export Pump by drugs_ opportunities provided by physicochemical property modulation,  in-silico modeling and structural modification_SI

$$$$
FLURBIPROFEN
  MOE2013           2D

 18 19  0  0  1  0  0  0  0  0999 V2000
    5.1960   -4.5000    0.0000 C   0  0  0  0  0  0  0  0  0  0  0  0
    5.1960   -3.0000    0.0000 C   0  0  3  0  0  0  0  0  0  0  0  0
    3.8970   -2.2500    0.0000 C   0  0  0  0  0  0  0  0  0  0  0  0
    3.8970   -0.7500    0.0000 C   0  0  0  0  0  0  0  0  0  0  0  0
    2.5980    0.0000    0.0000 C   0  0  0  0  0  0  0  0  0  0  0  0
    1.2990   -0.7500    0.0000 C   0  0  0  0  0  0  0  0  0  0  0  0
    1.2990   -2.2500    0.0000 C   0  0  0  0  0  0  0  0  0  0  0  0
    2.5980   -3.0000    0.0000 C   0  0  0  0  0  0  0  0  0  0  0  0
    0.0000   -3.0000    0.0000 F   0  0  0  0  0  0  0  0  0  0  0  0
    0.0000    0.0000    0.0000 C   0  0  0  0  0  0  0  0  0  0  0  0
    0.0000    1.5000    0.0000 C   0  0  0  0  0  0  0  0  0  0  0  0
   -1.2990    2.2500    0.0000 C   0  0  0  0  0  0  0  0  0  0  0  0
   -2.5980    1.5000    0.0000 C   0  0  0  0  0  0  0  0  0  0  0  0
   -2.5980    0.0000    0.0000 C   0  0  0  0  0  0  0  0  0  0  0  0
   -1.2990   -0.7500    0.0000 C   0  0  0  0  0  0  0  0  0  0  0  0
    6.4950   -2.2500    0.0000 C   0  0  0  0  0  0  0  0  0  0  0  0
    7.7940   -3.0000    0.0000 O   0  0  0  0  0  0  0  0  0  0  0  0
    6.4950   -0.7500    0.0000 O   0  0  0  0  0  0  0  0  0  0  0  0
  1  2  1  0  0  0  0
  2  3  1  0  0  0  0
  2 16  1  0  0  0  0
  3  4  1  0  0  0  0
  3  8  2  0  0  0  0
  4  5  2  0  0  0  0
  5  6  1  0  0  0  0
  6  7  2  0  0  0  0
  6 10  1  0  0  0  0
  7  8  1  0  0  0  0
  7  9  1  0  0  0  0
 10 11  1  0  0  0  0
 10 15  2  0  0  0  0
 11 12  2  0  0  0  0
 12 13  1  0  0  0  0
 13 14  2  0  0  0  0
 14 15  1  0  0  0  0
 16 17  2  0  0  0  0
 16 18  1  0  0  0  0
M  END
>  <n>
371

>  <SMILES>
Fc1cc(ccc1-c1ccccc1)C(C(O)=O)C

>  <IC50>
724.7

>  <Class>
0

>  <NAME>
FLURBIPROFEN

>  <INCHI_KEY>
SYTBZMRGLBWNTM-UHFFFAOYSA-N

>  <Reference>
Mitigating the inhibition of human Bile Salt Export Pump by drugs_ opportunities provided by physicochemical property modulation,  in-silico modeling and structural modification_SI

$$$$
FLUTAMIDE
  MOE2013           2D

 19 19  0  0  0  0  0  0  0  0999 V2000
    5.1960    0.0000    0.0000 C   0  0  0  0  0  0  0  0  0  0  0  0
    3.8970   -0.7500    0.0000 C   0  0  0  0  0  0  0  0  0  0  0  0
    3.8970   -2.2500    0.0000 C   0  0  0  0  0  0  0  0  0  0  0  0
    2.5980    0.0000    0.0000 C   0  0  0  0  0  0  0  0  0  0  0  0
    2.5980    1.5000    0.0000 O   0  0  0  0  0  0  0  0  0  0  0  0
    1.2990   -0.7500    0.0000 N   0  0  0  0  0  0  0  0  0  0  0  0
    0.0000    0.0000    0.0000 C   0  0  0  0  0  0  0  0  0  0  0  0
    0.0000    1.5000    0.0000 C   0  0  0  0  0  0  0  0  0  0  0  0
   -1.2990    2.2500    0.0000 C   0  0  0  0  0  0  0  0  0  0  0  0
   -2.5980    1.5000    0.0000 C   0  0  0  0  0  0  0  0  0  0  0  0
   -2.5980    0.0000    0.0000 C   0  0  0  0  0  0  0  0  0  0  0  0
   -1.2990   -0.7500    0.0000 C   0  0  0  0  0  0  0  0  0  0  0  0
   -3.8970   -0.7500    0.0000 C   0  0  0  0  0  0  0  0  0  0  0  0
   -5.1960    0.0000    0.0000 F   0  0  0  0  0  0  0  0  0  0  0  0
   -4.8610   -1.8990    0.0000 F   0  0  0  0  0  0  0  0  0  0  0  0
   -2.9330   -1.8990    0.0000 F   0  0  0  0  0  0  0  0  0  0  0  0
   -3.8970    2.2500    0.0000 N   0  3  0  0  0  0  0  0  0  0  0  0
   -3.8970    3.7500    0.0000 O   0  0  0  0  0  0  0  0  0  0  0  0
   -5.1960    1.5000    0.0000 O   0  5  0  0  0  0  0  0  0  0  0  0
  1  2  1  0  0  0  0
  2  3  1  0  0  0  0
  2  4  1  0  0  0  0
  4  5  2  0  0  0  0
  4  6  1  0  0  0  0
  6  7  1  0  0  0  0
  7  8  1  0  0  0  0
  7 12  2  0  0  0  0
  8  9  2  0  0  0  0
  9 10  1  0  0  0  0
 10 11  2  0  0  0  0
 10 17  1  0  0  0  0
 11 12  1  0  0  0  0
 11 13  1  0  0  0  0
 13 14  1  0  0  0  0
 13 15  1  0  0  0  0
 13 16  1  0  0  0  0
 17 18  2  0  0  0  0
 17 19  1  0  0  0  0
M  CHG  1  17   1
M  CHG  1  19  -1
M  END
>  <n>
372

>  <SMILES>
FC(F)(F)c1cc(NC(=O)C(C)C)ccc1[N+](=O)[O-]

>  <IC50>
60.78

>  <Class>
0

>  <NAME>
FLUTAMIDE

>  <INCHI_KEY>
MKXKFYHWDHIYRV-UHFFFAOYSA-N

>  <Reference>
Mitigating, Dawson

$$$$
FOLIC_ACID
  MOE2013           2D

 32 34  0  0  1  0  0  0  0  0999 V2000
   -1.2990   -0.7500    0.0000 N   0  0  0  0  0  0  0  0  0  0  0  0
   -2.5980    0.0000    0.0000 C   0  0  0  0  0  0  0  0  0  0  0  0
   -2.5980    1.5000    0.0000 N   0  0  0  0  0  0  0  0  0  0  0  0
   -1.2990    2.2500    0.0000 C   0  0  0  0  0  0  0  0  0  0  0  0
   -1.2990    3.7500    0.0000 O   0  0  0  0  0  0  0  0  0  0  0  0
    0.0000    0.0000    0.0000 C   0  0  0  0  0  0  0  0  0  0  0  0
    1.2990   -0.7500    0.0000 N   0  0  0  0  0  0  0  0  0  0  0  0
    0.0000    1.5000    0.0000 C   0  0  0  0  0  0  0  0  0  0  0  0
    2.5980    0.0000    0.0000 C   0  0  0  0  0  0  0  0  0  0  0  0
    1.2990    2.2500    0.0000 N   0  0  0  0  0  0  0  0  0  0  0  0
    2.5980    1.5000    0.0000 C   0  0  0  0  0  0  0  0  0  0  0  0
    3.8970    2.2500    0.0000 C   0  0  0  0  0  0  0  0  0  0  0  0
    5.1960    1.5000    0.0000 N   0  0  0  0  0  0  0  0  0  0  0  0
    6.4950    2.2500    0.0000 C   0  0  0  0  0  0  0  0  0  0  0  0
    6.4950    3.7500    0.0000 C   0  0  0  0  0  0  0  0  0  0  0  0
    7.7940    1.5000    0.0000 C   0  0  0  0  0  0  0  0  0  0  0  0
    7.7940    4.5000    0.0000 C   0  0  0  0  0  0  0  0  0  0  0  0
    9.0930    2.2500    0.0000 C   0  0  0  0  0  0  0  0  0  0  0  0
    9.0930    3.7500    0.0000 C   0  0  0  0  0  0  0  0  0  0  0  0
   10.3920    4.5000    0.0000 C   0  0  0  0  0  0  0  0  0  0  0  0
   10.3920    6.0000    0.0000 O   0  0  0  0  0  0  0  0  0  0  0  0
   11.6910    3.7500    0.0000 N   0  0  0  0  0  0  0  0  0  0  0  0
   12.9900    4.5000    0.0000 C   0  0  3  0  0  0  0  0  0  0  0  0
   14.2890    3.7500    0.0000 C   0  0  0  0  0  0  0  0  0  0  0  0
   12.9900    6.0000    0.0000 C   0  0  0  0  0  0  0  0  0  0  0  0
   15.5880    4.5000    0.0000 C   0  0  0  0  0  0  0  0  0  0  0  0
   14.2890    6.7500    0.0000 O   0  0  0  0  0  0  0  0  0  0  0  0
   11.6910    6.7500    0.0000 O   0  0  0  0  0  0  0  0  0  0  0  0
   16.8880    3.7500    0.0000 C   0  0  0  0  0  0  0  0  0  0  0  0
   18.1860    4.5000    0.0000 O   0  0  0  0  0  0  0  0  0  0  0  0
   16.8880    2.2500    0.0000 O   0  0  0  0  0  0  0  0  0  0  0  0
   -3.8970   -0.7500    0.0000 N   0  0  0  0  0  0  0  0  0  0  0  0
  1  2  2  0  0  0  0
  1  6  1  0  0  0  0
  2  3  1  0  0  0  0
  2 32  1  0  0  0  0
  3  4  1  0  0  0  0
  4  5  2  0  0  0  0
  4  8  1  0  0  0  0
  6  7  2  0  0  0  0
  6  8  1  0  0  0  0
  7  9  1  0  0  0  0
  8 10  2  0  0  0  0
  9 11  2  0  0  0  0
 10 11  1  0  0  0  0
 11 12  1  0  0  0  0
 12 13  1  0  0  0  0
 13 14  1  0  0  0  0
 14 15  2  0  0  0  0
 14 16  1  0  0  0  0
 15 17  1  0  0  0  0
 16 18  2  0  0  0  0
 17 19  2  0  0  0  0
 18 19  1  0  0  0  0
 19 20  1  0  0  0  0
 20 21  2  0  0  0  0
 20 22  1  0  0  0  0
 22 23  1  0  0  0  0
 23 24  1  0  0  0  0
 23 25  1  0  0  0  0
 24 26  1  0  0  0  0
 25 27  2  0  0  0  0
 25 28  1  0  0  0  0
 26 29  1  0  0  0  0
 29 30  2  0  0  0  0
 29 31  1  0  0  0  0
M  END
>  <n>
373

>  <SMILES>
O=C1N=C(Nc2ncc(nc12)CNc1ccc(cc1)C(=O)N[C@@H](CCC(O)=O)C(O)=O)N

>  <IC50>
>1000

>  <Class>
0

>  <NAME>
FOLIC ACID

>  <INCHI_KEY>
OVBPIULPVIDEAO-LBPRGKRZSA-N

>  <Reference>
Mitigating the inhibition of human Bile Salt Export Pump by drugs_ opportunities provided by physicochemical property modulation,  in-silico modeling and structural modification_SI

$$$$
mol375
  MOE2013           2D

 36 38  0  0  1  0  0  0  0  0999 V2000
    7.7940    4.5000    0.0000 C   0  0  0  0  0  0  0  0  0  0  0  0
    6.4950    3.7500    0.0000 C   0  0  0  0  0  0  0  0  0  0  0  0
    6.4950    2.2500    0.0000 C   0  0  0  0  0  0  0  0  0  0  0  0
    7.7940    1.5000    0.0000 C   0  0  0  0  0  0  0  0  0  0  0  0
    7.7940    0.0000    0.0000 C   0  0  0  0  0  0  0  0  0  0  0  0
    9.0930   -0.7500    0.0000 C   0  0  0  0  0  0  0  0  0  0  0  0
   10.3920    0.0000    0.0000 C   0  0  0  0  0  0  0  0  0  0  0  0
   10.3920    1.5000    0.0000 C   0  0  0  0  0  0  0  0  0  0  0  0
    9.0930    2.2500    0.0000 C   0  0  0  0  0  0  0  0  0  0  0  0
    9.0930    3.7500    0.0000 O   0  0  0  0  0  0  0  0  0  0  0  0
   11.6910    2.2500    0.0000 C   0  0  0  0  0  0  0  0  0  0  0  0
   12.9900    1.5000    0.0000 O   0  0  0  0  0  0  0  0  0  0  0  0
   11.6910    3.7500    0.0000 C   0  0  0  0  0  0  0  0  0  0  0  0
    6.4950   -0.7500    0.0000 O   0  0  0  0  0  0  0  0  0  0  0  0
    5.1960    0.0000    0.0000 C   0  0  0  0  0  0  0  0  0  0  0  0
    3.8970   -0.7500    0.0000 C   0  0  3  0  0  0  0  0  0  0  0  0
    2.5980    0.0000    0.0000 C   0  0  0  0  0  0  0  0  0  0  0  0
    1.2990   -0.7500    0.0000 O   0  0  0  0  0  0  0  0  0  0  0  0
    0.0000    0.0000    0.0000 C   0  0  0  0  0  0  0  0  0  0  0  0
    0.0000    1.5000    0.0000 C   0  0  0  0  0  0  0  0  0  0  0  0
   -1.2990    2.2500    0.0000 C   0  0  0  0  0  0  0  0  0  0  0  0
   -2.5980    1.5000    0.0000 C   0  0  0  0  0  0  0  0  0  0  0  0
   -3.8970    2.2500    0.0000 C   0  0  0  0  0  0  0  0  0  0  0  0
   -3.8970    3.7500    0.0000 O   0  0  0  0  0  0  0  0  0  0  0  0
   -5.1960    1.5000    0.0000 C   0  0  0  0  0  0  0  0  0  0  0  0
   -5.1960    0.0000    0.0000 C   0  0  0  0  0  0  0  0  0  0  0  0
   -3.8970   -0.7500    0.0000 O   0  0  0  0  0  0  0  0  0  0  0  0
   -2.5980    0.0000    0.0000 C   0  0  0  0  0  0  0  0  0  0  0  0
   -1.2990   -0.7500    0.0000 C   0  0  0  0  0  0  0  0  0  0  0  0
   -1.2990   -2.2500    0.0000 C   0  0  0  0  0  0  0  0  0  0  0  0
   -2.5980   -3.0000    0.0000 C   0  0  0  0  0  0  0  0  0  0  0  0
   -2.5980   -4.5000    0.0000 C   0  0  0  0  0  0  0  0  0  0  0  0
   -6.4950   -0.7500    0.0000 C   0  0  0  0  0  0  0  0  0  0  0  0
   -7.7940    0.0000    0.0000 O   0  0  0  0  0  0  0  0  0  0  0  0
   -6.4950   -2.2500    0.0000 O   0  0  0  0  0  0  0  0  0  0  0  0
    3.8970   -2.2500    0.0000 O   0  0  0  0  0  0  0  0  0  0  0  0
  1  2  1  0  0  0  0
  2  3  1  0  0  0  0
  3  4  1  0  0  0  0
  4  5  1  0  0  0  0
  4  9  2  0  0  0  0
  5  6  2  0  0  0  0
  5 14  1  0  0  0  0
  6  7  1  0  0  0  0
  7  8  2  0  0  0  0
  8  9  1  0  0  0  0
  8 11  1  0  0  0  0
  9 10  1  0  0  0  0
 11 12  2  0  0  0  0
 11 13  1  0  0  0  0
 14 15  1  0  0  0  0
 15 16  1  0  0  0  0
 16 17  1  0  0  0  0
 16 36  1  0  0  0  0
 17 18  1  0  0  0  0
 18 19  1  0  0  0  0
 19 20  1  0  0  0  0
 19 29  2  0  0  0  0
 20 21  2  0  0  0  0
 21 22  1  0  0  0  0
 22 23  1  0  0  0  0
 22 28  2  0  0  0  0
 23 24  2  0  0  0  0
 23 25  1  0  0  0  0
 25 26  2  0  0  0  0
 26 27  1  0  0  0  0
 26 33  1  0  0  0  0
 27 28  1  0  0  0  0
 28 29  1  0  0  0  0
 29 30  1  0  0  0  0
 30 31  1  0  0  0  0
 31 32  1  0  0  0  0
 33 34  2  0  0  0  0
 33 35  1  0  0  0  0
M  END
>  <n>
375

>  <SMILES>
O1c2c(ccc(OCC(O)COc3ccc(C(=O)C)c(O)c3CCC)c2CCC)C(=O)C=C1C(O)=O

>  <IC50>
<10

>  <Class>
1

>  <NAME>
FPL-55712

>  <INCHI_KEY>
LMQBMWHHGVZWMR-UHFFFAOYSA-N

>  <Reference>
Mitigating the inhibition of human Bile Salt Export Pump by drugs_ opportunities provided by physicochemical property modulation,  in-silico modeling and structural modification_SI

$$$$
FUROSEMIDE
  MOE2013           2D

 21 22  0  0  0  0  0  0  0  0999 V2000
    0.0000    0.0000    0.0000 C   0  0  0  0  0  0  0  0  0  0  0  0
    0.0000    1.5000    0.0000 C   0  0  0  0  0  0  0  0  0  0  0  0
   -1.4270    1.9640    0.0000 C   0  0  0  0  0  0  0  0  0  0  0  0
   -2.3080    0.7500    0.0000 O   0  0  0  0  0  0  0  0  0  0  0  0
   -1.4270   -0.4640    0.0000 C   0  0  0  0  0  0  0  0  0  0  0  0
   -1.8900    3.3900    0.0000 C   0  0  0  0  0  0  0  0  0  0  0  0
   -3.3570    3.7020    0.0000 N   0  0  0  0  0  0  0  0  0  0  0  0
   -3.8210    5.1290    0.0000 C   0  0  0  0  0  0  0  0  0  0  0  0
   -2.8170    6.2430    0.0000 C   0  0  0  0  0  0  0  0  0  0  0  0
   -3.2810    7.6700    0.0000 C   0  0  0  0  0  0  0  0  0  0  0  0
   -4.7480    7.9820    0.0000 C   0  0  0  0  0  0  0  0  0  0  0  0
   -5.7520    6.8670    0.0000 C   0  0  0  0  0  0  0  0  0  0  0  0
   -5.2880    5.4400    0.0000 C   0  0  0  0  0  0  0  0  0  0  0  0
   -6.2920    4.3260    0.0000 C   0  0  0  0  0  0  0  0  0  0  0  0
   -7.7590    4.6380    0.0000 O   0  0  0  0  0  0  0  0  0  0  0  0
   -5.8280    2.8990    0.0000 O   0  0  0  0  0  0  0  0  0  0  0  0
   -5.2110    9.4080    0.0000 S   0  0  0  0  0  0  0  0  0  0  0  0
   -6.6790    9.7200    0.0000 O   0  0  0  0  0  0  0  0  0  0  0  0
   -3.7260    9.6170    0.0000 O   0  0  0  0  0  0  0  0  0  0  0  0
   -5.1590   10.9070    0.0000 N   0  0  0  0  0  0  0  0  0  0  0  0
   -2.2770    8.7850    0.0000 Cl  0  0  0  0  0  0  0  0  0  0  0  0
  1  2  1  0  0  0  0
  1  5  2  0  0  0  0
  2  3  2  0  0  0  0
  3  4  1  0  0  0  0
  3  6  1  0  0  0  0
  4  5  1  0  0  0  0
  6  7  1  0  0  0  0
  7  8  1  0  0  0  0
  8  9  1  0  0  0  0
  8 13  2  0  0  0  0
  9 10  2  0  0  0  0
 10 11  1  0  0  0  0
 10 21  1  0  0  0  0
 11 12  2  0  0  0  0
 11 17  1  0  0  0  0
 12 13  1  0  0  0  0
 13 14  1  0  0  0  0
 14 15  2  0  0  0  0
 14 16  1  0  0  0  0
 17 18  2  0  0  0  0
 17 19  2  0  0  0  0
 17 20  1  0  0  0  0
M  END
>  <n>
376

>  <SMILES>
Clc1cc(NCc2occc2)c(cc1S(=O)(=O)N)C(O)=O

>  <IC50>
>964.8

>  <Class>
0

>  <NAME>
FUROSEMIDE

>  <INCHI_KEY>
ZZUFCTLCJUWOSV-UHFFFAOYSA-N

>  <Reference>
Mitigating, Dawson

$$$$
Folinic_acid
  MOE2013           2D

 34 36  0  0  1  0  0  0  0  0999 V2000
    6.4950   -0.7500    0.0000 C   0  0  0  0  0  0  0  0  0  0  0  0
    5.1960    0.0000    0.0000 C   0  0  0  0  0  0  0  0  0  0  0  0
    3.8970   -0.7500    0.0000 C   0  0  0  0  0  0  0  0  0  0  0  0
    3.8970   -2.2500    0.0000 C   0  0  0  0  0  0  0  0  0  0  0  0
    5.1960   -3.0000    0.0000 C   0  0  0  0  0  0  0  0  0  0  0  0
    6.4950   -2.2500    0.0000 C   0  0  0  0  0  0  0  0  0  0  0  0
    7.7940   -3.0000    0.0000 C   0  0  0  0  0  0  0  0  0  0  0  0
    7.7940   -4.5000    0.0000 O   0  0  0  0  0  0  0  0  0  0  0  0
    9.0930   -2.2500    0.0000 N   0  0  0  0  0  0  0  0  0  0  0  0
   10.3920   -3.0000    0.0000 C   0  0  3  0  0  0  0  0  0  0  0  0
   11.6910   -2.2500    0.0000 C   0  0  0  0  0  0  0  0  0  0  0  0
   12.9900   -3.0000    0.0000 C   0  0  0  0  0  0  0  0  0  0  0  0
   14.2890   -2.2500    0.0000 C   0  0  0  0  0  0  0  0  0  0  0  0
   15.5880   -3.0000    0.0000 O   0  0  0  0  0  0  0  0  0  0  0  0
   14.2890   -0.7500    0.0000 O   0  0  0  0  0  0  0  0  0  0  0  0
   10.3920   -4.5000    0.0000 C   0  0  0  0  0  0  0  0  0  0  0  0
   11.6910   -5.2500    0.0000 O   0  0  0  0  0  0  0  0  0  0  0  0
    9.0930   -5.2500    0.0000 O   0  0  0  0  0  0  0  0  0  0  0  0
    2.5980    0.0000    0.0000 N   0  0  0  0  0  0  0  0  0  0  0  0
    1.2990   -0.7500    0.0000 C   0  0  0  0  0  0  0  0  0  0  0  0
    0.0000    0.0000    0.0000 C   0  0  3  0  0  0  0  0  0  0  0  0
    0.0000    1.5000    0.0000 C   0  0  0  0  0  0  0  0  0  0  0  0
   -1.2990    2.2500    0.0000 N   0  0  0  0  0  0  0  0  0  0  0  0
   -2.5980    1.5000    0.0000 C   0  0  0  0  0  0  0  0  0  0  0  0
   -2.5980    0.0000    0.0000 C   0  0  0  0  0  0  0  0  0  0  0  0
   -3.8970   -0.7500    0.0000 C   0  0  0  0  0  0  0  0  0  0  0  0
   -3.8970   -2.2500    0.0000 O   0  0  0  0  0  0  0  0  0  0  0  0
   -5.1960    0.0000    0.0000 N   0  0  0  0  0  0  0  0  0  0  0  0
   -5.1960    1.5000    0.0000 C   0  0  0  0  0  0  0  0  0  0  0  0
   -3.8970    2.2500    0.0000 N   0  0  0  0  0  0  0  0  0  0  0  0
   -6.4950    2.2500    0.0000 N   0  0  0  0  0  0  0  0  0  0  0  0
   -1.2990   -0.7500    0.0000 N   0  0  0  0  0  0  0  0  0  0  0  0
   -1.2990   -2.2500    0.0000 C   0  0  0  0  0  0  0  0  0  0  0  0
   -2.5980   -3.0000    0.0000 O   0  0  0  0  0  0  0  0  0  0  0  0
  1  2  1  0  0  0  0
  1  6  2  0  0  0  0
  2  3  2  0  0  0  0
  3  4  1  0  0  0  0
  3 19  1  0  0  0  0
  4  5  2  0  0  0  0
  5  6  1  0  0  0  0
  6  7  1  0  0  0  0
  7  8  2  0  0  0  0
  7  9  1  0  0  0  0
  9 10  1  0  0  0  0
 10 11  1  0  0  0  0
 10 16  1  0  0  0  0
 11 12  1  0  0  0  0
 12 13  1  0  0  0  0
 13 14  2  0  0  0  0
 13 15  1  0  0  0  0
 16 17  2  0  0  0  0
 16 18  1  0  0  0  0
 19 20  1  0  0  0  0
 20 21  1  0  0  0  0
 21 22  1  0  0  0  0
 21 32  1  0  0  0  0
 22 23  1  0  0  0  0
 23 24  1  0  0  0  0
 24 25  2  0  0  0  0
 24 30  1  0  0  0  0
 25 26  1  0  0  0  0
 25 32  1  0  0  0  0
 26 27  2  0  0  0  0
 26 28  1  0  0  0  0
 28 29  1  0  0  0  0
 29 30  2  0  0  0  0
 29 31  1  0  0  0  0
 32 33  1  0  0  0  0
 33 34  2  0  0  0  0
M  END
>  <n>
374

>  <SMILES>
O=C1NC(=NC=2NCC(N(C1=2)C=O)CNc1ccc(cc1)C(=O)N[C@@H](CCC(O)=O)C(O)=O)N

>  <IC50>
>1000

>  <Class>
0

>  <NAME>
Folinic acid

>  <INCHI_KEY>
VVIAGPKUTFNRDU-ABLWVSNPSA-N

>  <Reference>
Mitigating the inhibition of human Bile Salt Export Pump by drugs_ opportunities provided by physicochemical property modulation,  in-silico modeling and structural modification_SI

$$$$
GABAPENTIN
  MOE2013           2D

 12 12  0  0  0  0  0  0  0  0999 V2000
    0.0000    0.0000    0.0000 C   0  0  0  0  0  0  0  0  0  0  0  0
    0.0000    1.5000    0.0000 C   0  0  0  0  0  0  0  0  0  0  0  0
   -1.2990    2.2500    0.0000 C   0  0  0  0  0  0  0  0  0  0  0  0
   -2.5980    1.5000    0.0000 C   0  0  0  0  0  0  0  0  0  0  0  0
   -2.5980    0.0000    0.0000 C   0  0  0  0  0  0  0  0  0  0  0  0
   -1.2990   -0.7500    0.0000 C   0  0  0  0  0  0  0  0  0  0  0  0
   -3.1110    2.9100    0.0000 C   0  0  0  0  0  0  0  0  0  0  0  0
   -4.5880    3.1700    0.0000 C   0  0  0  0  0  0  0  0  0  0  0  0
   -5.1010    4.5800    0.0000 O   0  0  0  0  0  0  0  0  0  0  0  0
   -5.5520    2.0210    0.0000 O   0  0  0  0  0  0  0  0  0  0  0  0
   -4.0750    1.2400    0.0000 C   0  0  0  0  0  0  0  0  0  0  0  0
   -4.5880   -0.1700    0.0000 N   0  0  0  0  0  0  0  0  0  0  0  0
  1  2  1  0  0  0  0
  1  6  1  0  0  0  0
  2  3  1  0  0  0  0
  3  4  1  0  0  0  0
  4  5  1  0  0  0  0
  4  7  1  0  0  0  0
  4 11  1  0  0  0  0
  5  6  1  0  0  0  0
  7  8  1  0  0  0  0
  8  9  2  0  0  0  0
  8 10  1  0  0  0  0
 11 12  1  0  0  0  0
M  END
>  <n>
377

>  <SMILES>
OC(=O)CC1(CCCCC1)CN

>  <IC50>
>1000

>  <Class>
0

>  <NAME>
GABAPENTIN

>  <INCHI_KEY>
UGJMXCAKCUNAIE-UHFFFAOYSA-N

>  <Reference>
Mitigating the inhibition of human Bile Salt Export Pump by drugs_ opportunities provided by physicochemical property modulation,  in-silico modeling and structural modification_SI

$$$$
GEMIFLOXACIN
  MOE2013           2D

 28 31  0  0  1  0  0  0  0  0999 V2000
    1.9030  -10.6060    0.0000 C   0  0  0  0  0  0  0  0  0  0  0  0
    1.0220   -9.3920    0.0000 O   0  0  0  0  0  0  0  0  0  0  0  0
    1.6320   -8.0220    0.0000 N   0  0  0  0  0  0  0  0  0  0  0  0
    0.7500   -6.8080    0.0000 C   0  0  0  0  0  0  0  0  0  0  0  0
   -0.7500   -6.8080    0.0000 C   0  0  0  0  0  0  0  0  0  0  0  0
   -1.2140   -5.3820    0.0000 N   0  0  3  0  0  0  0  0  0  0  0  0
    0.0000   -4.5000    0.0000 C   0  0  0  0  0  0  0  0  0  0  0  0
    1.2140   -5.3820    0.0000 C   0  0  3  0  0  0  0  0  0  0  0  0
    2.6400   -4.9180    0.0000 C   0  0  0  0  0  0  0  0  0  0  0  0
    3.7550   -5.9220    0.0000 N   0  0  0  0  0  0  0  0  0  0  0  0
   -2.6400   -4.9180    0.0000 C   0  0  0  0  0  0  0  0  0  0  0  0
   -3.7550   -5.9220    0.0000 C   0  0  0  0  0  0  0  0  0  0  0  0
   -5.1810   -5.4580    0.0000 C   0  0  0  0  0  0  0  0  0  0  0  0
   -5.4930   -3.9910    0.0000 C   0  0  0  0  0  0  0  0  0  0  0  0
   -6.9200   -3.5280    0.0000 C   0  0  0  0  0  0  0  0  0  0  0  0
   -8.0350   -4.5310    0.0000 O   0  0  0  0  0  0  0  0  0  0  0  0
   -7.2320   -2.0600    0.0000 C   0  0  0  0  0  0  0  0  0  0  0  0
   -6.1170   -1.0570    0.0000 C   0  0  0  0  0  0  0  0  0  0  0  0
   -4.6900   -1.5200    0.0000 N   0  0  3  0  0  0  0  0  0  0  0  0
   -4.3790   -2.9870    0.0000 C   0  0  0  0  0  0  0  0  0  0  0  0
   -2.9520   -3.4510    0.0000 N   0  0  0  0  0  0  0  0  0  0  0  0
   -3.5760   -0.5160    0.0000 C   0  0  0  0  0  0  0  0  0  0  0  0
   -3.1120    0.9100    0.0000 C   0  0  0  0  0  0  0  0  0  0  0  0
   -2.1080   -0.2050    0.0000 C   0  0  0  0  0  0  0  0  0  0  0  0
   -8.6580   -1.5970    0.0000 C   0  0  0  0  0  0  0  0  0  0  0  0
   -8.9700   -0.1300    0.0000 O   0  0  0  0  0  0  0  0  0  0  0  0
   -9.7730   -2.6000    0.0000 O   0  0  0  0  0  0  0  0  0  0  0  0
   -3.4430   -7.3890    0.0000 F   0  0  0  0  0  0  0  0  0  0  0  0
  1  2  1  0  0  0  0
  2  3  1  0  0  0  0
  3  4  2  0  0  0  0
  4  5  1  0  0  0  0
  4  8  1  0  0  0  0
  5  6  1  0  0  0  0
  6  7  1  0  0  0  0
  6 11  1  0  0  0  0
  7  8  1  0  0  0  0
  8  9  1  0  0  0  0
  9 10  1  0  0  0  0
 11 12  1  0  0  0  0
 11 21  2  0  0  0  0
 12 13  2  0  0  0  0
 12 28  1  0  0  0  0
 13 14  1  0  0  0  0
 14 15  1  0  0  0  0
 14 20  2  0  0  0  0
 15 16  2  0  0  0  0
 15 17  1  0  0  0  0
 17 18  2  0  0  0  0
 17 25  1  0  0  0  0
 18 19  1  0  0  0  0
 19 20  1  0  0  0  0
 19 22  1  0  0  0  0
 20 21  1  0  0  0  0
 22 23  1  0  0  0  0
 22 24  1  0  0  0  0
 23 24  1  0  0  0  0
 25 26  2  0  0  0  0
 25 27  1  0  0  0  0
M  END
>  <n>
379

>  <SMILES>
Fc1cc2c(nc1N1CC(CN)/C(=N/OC)/C1)N(C=C(C(O)=O)C2=O)C1CC1

>  <IC50>
>1000

>  <Class>
0

>  <NAME>
GEMIFLOXACIN

>  <INCHI_KEY>
ZRCVYEYHRGVLOC-HYARGMPZSA-N

>  <Reference>
Mitigating the inhibition of human Bile Salt Export Pump by drugs_ opportunities provided by physicochemical property modulation,  in-silico modeling and structural modification_SI

$$$$
GLIBENCLAMIDE
  MOE2013           2D

 33 35  0  0  0  0  0  0  0  0999 V2000
    9.0930  -15.7500    0.0000 C   0  0  0  0  0  0  0  0  0  0  0  0
    9.0930  -14.2500    0.0000 O   0  0  0  0  0  0  0  0  0  0  0  0
   10.3920  -13.5000    0.0000 C   0  0  0  0  0  0  0  0  0  0  0  0
   11.6910  -14.2500    0.0000 C   0  0  0  0  0  0  0  0  0  0  0  0
   12.9900  -13.5000    0.0000 C   0  0  0  0  0  0  0  0  0  0  0  0
   12.9900  -12.0000    0.0000 C   0  0  0  0  0  0  0  0  0  0  0  0
   11.6910  -11.2500    0.0000 C   0  0  0  0  0  0  0  0  0  0  0  0
   10.3920  -12.0000    0.0000 C   0  0  0  0  0  0  0  0  0  0  0  0
    9.0930  -11.2500    0.0000 C   0  0  0  0  0  0  0  0  0  0  0  0
    7.7940  -12.0000    0.0000 O   0  0  0  0  0  0  0  0  0  0  0  0
    9.0930   -9.7500    0.0000 N   0  0  0  0  0  0  0  0  0  0  0  0
    7.7940   -9.0000    0.0000 C   0  0  0  0  0  0  0  0  0  0  0  0
    7.7940   -7.5000    0.0000 C   0  0  0  0  0  0  0  0  0  0  0  0
    6.4950   -6.7500    0.0000 C   0  0  0  0  0  0  0  0  0  0  0  0
    6.4950   -5.2500    0.0000 C   0  0  0  0  0  0  0  0  0  0  0  0
    5.1960   -4.5000    0.0000 C   0  0  0  0  0  0  0  0  0  0  0  0
    3.8970   -5.2500    0.0000 C   0  0  0  0  0  0  0  0  0  0  0  0
    3.8970   -6.7500    0.0000 C   0  0  0  0  0  0  0  0  0  0  0  0
    5.1960   -7.5000    0.0000 C   0  0  0  0  0  0  0  0  0  0  0  0
    2.5980   -4.5000    0.0000 S   0  0  0  0  0  0  0  0  0  0  0  0
    1.1210   -4.2400    0.0000 O   0  0  0  0  0  0  0  0  0  0  0  0
    2.0850   -5.9100    0.0000 O   0  0  0  0  0  0  0  0  0  0  0  0
    2.5980   -3.0000    0.0000 N   0  0  0  0  0  0  0  0  0  0  0  0
    1.2990   -2.2500    0.0000 C   0  0  0  0  0  0  0  0  0  0  0  0
    0.0000   -3.0000    0.0000 O   0  0  0  0  0  0  0  0  0  0  0  0
    1.2990   -0.7500    0.0000 N   0  0  0  0  0  0  0  0  0  0  0  0
    0.0000    0.0000    0.0000 C   0  0  0  0  0  0  0  0  0  0  0  0
    0.0000    1.5000    0.0000 C   0  0  0  0  0  0  0  0  0  0  0  0
   -1.2990    2.2500    0.0000 C   0  0  0  0  0  0  0  0  0  0  0  0
   -2.5980    1.5000    0.0000 C   0  0  0  0  0  0  0  0  0  0  0  0
   -2.5980    0.0000    0.0000 C   0  0  0  0  0  0  0  0  0  0  0  0
   -1.2990   -0.7500    0.0000 C   0  0  0  0  0  0  0  0  0  0  0  0
   14.2890  -11.2500    0.0000 Cl  0  0  0  0  0  0  0  0  0  0  0  0
  1  2  1  0  0  0  0
  2  3  1  0  0  0  0
  3  4  1  0  0  0  0
  3  8  2  0  0  0  0
  4  5  2  0  0  0  0
  5  6  1  0  0  0  0
  6  7  2  0  0  0  0
  6 33  1  0  0  0  0
  7  8  1  0  0  0  0
  8  9  1  0  0  0  0
  9 10  2  0  0  0  0
  9 11  1  0  0  0  0
 11 12  1  0  0  0  0
 12 13  1  0  0  0  0
 13 14  1  0  0  0  0
 14 15  1  0  0  0  0
 14 19  2  0  0  0  0
 15 16  2  0  0  0  0
 16 17  1  0  0  0  0
 17 18  2  0  0  0  0
 17 20  1  0  0  0  0
 18 19  1  0  0  0  0
 20 21  2  0  0  0  0
 20 22  2  0  0  0  0
 20 23  1  0  0  0  0
 23 24  1  0  0  0  0
 24 25  2  0  0  0  0
 24 26  1  0  0  0  0
 26 27  1  0  0  0  0
 27 28  1  0  0  0  0
 27 32  1  0  0  0  0
 28 29  1  0  0  0  0
 29 30  1  0  0  0  0
 30 31  1  0  0  0  0
 31 32  1  0  0  0  0
M  END
>  <n>
381

>  <SMILES>
Clc1cc(C(=O)NCCc2ccc(S(=O)(=O)NC(=O)NC3CCCCC3)cc2)c(OC)cc1

>  <IC50>
<10

>  <Class>
1

>  <NAME>
GLIBENCLAMIDE

>  <INCHI_KEY>
ZNNLBTZKUZBEKO-UHFFFAOYSA-N

>  <Reference>
Mitigating, Dawson, Interference

$$$$
GLICLAZIDE
  MOE2013           2D

 22 24  0  0  1  0  0  0  0  0999 V2000
    5.7160  -11.6100    0.0000 C   0  0  0  0  0  0  0  0  0  0  0  0
    5.2520  -10.1840    0.0000 C   0  0  0  0  0  0  0  0  0  0  0  0
    6.2560   -9.0690    0.0000 C   0  0  0  0  0  0  0  0  0  0  0  0
    5.7920   -7.6420    0.0000 C   0  0  0  0  0  0  0  0  0  0  0  0
    4.3250   -7.3300    0.0000 C   0  0  0  0  0  0  0  0  0  0  0  0
    3.3210   -8.4450    0.0000 C   0  0  0  0  0  0  0  0  0  0  0  0
    3.7850   -9.8720    0.0000 C   0  0  0  0  0  0  0  0  0  0  0  0
    3.8620   -5.9040    0.0000 S   0  0  0  0  0  0  0  0  0  0  0  0
    5.3470   -5.6950    0.0000 O   0  0  0  0  0  0  0  0  0  0  0  0
    3.9140   -4.4050    0.0000 O   0  0  0  0  0  0  0  0  0  0  0  0
    2.3940   -5.5920    0.0000 N   0  0  0  0  0  0  0  0  0  0  0  0
    1.9310   -4.1660    0.0000 C   0  0  0  0  0  0  0  0  0  0  0  0
    2.9340   -3.0510    0.0000 O   0  0  0  0  0  0  0  0  0  0  0  0
    0.4640   -3.8540    0.0000 N   0  0  0  0  0  0  0  0  0  0  0  0
    0.0000   -2.4270    0.0000 N   0  0  0  0  0  0  0  0  0  0  0  0
    0.8820   -1.2140    0.0000 C   0  0  0  0  0  0  0  0  0  0  0  0
    0.0000    0.0000    0.0000 C   0  0  3  0  0  0  0  0  0  0  0  0
    0.0000    1.5000    0.0000 C   0  0  0  0  0  0  0  0  0  0  0  0
   -1.4270    1.9640    0.0000 C   0  0  0  0  0  0  0  0  0  0  0  0
   -2.3080    0.7500    0.0000 C   0  0  0  0  0  0  0  0  0  0  0  0
   -1.4270   -0.4640    0.0000 C   0  0  3  0  0  0  0  0  0  0  0  0
   -1.4270   -1.9640    0.0000 C   0  0  0  0  0  0  0  0  0  0  0  0
  1  2  1  0  0  0  0
  2  3  1  0  0  0  0
  2  7  2  0  0  0  0
  3  4  2  0  0  0  0
  4  5  1  0  0  0  0
  5  6  2  0  0  0  0
  5  8  1  0  0  0  0
  6  7  1  0  0  0  0
  8  9  2  0  0  0  0
  8 10  2  0  0  0  0
  8 11  1  0  0  0  0
 11 12  1  0  0  0  0
 12 13  2  0  0  0  0
 12 14  1  0  0  0  0
 14 15  1  0  0  0  0
 15 16  1  0  0  0  0
 15 22  1  0  0  0  0
 16 17  1  0  0  0  0
 17 18  1  0  0  0  0
 17 21  1  0  0  0  0
 18 19  1  0  0  0  0
 19 20  1  0  0  0  0
 20 21  1  0  0  0  0
 21 22  1  0  0  0  0
M  END
>  <n>
382

>  <SMILES>
S(=O)(=O)(NC(=O)NN1CC2C(CCC2)C1)c1ccc(cc1)C

>  <IC50>
590.8

>  <Class>
0

>  <NAME>
GLICLAZIDE

>  <INCHI_KEY>
BOVGTQGAOIONJV-UHFFFAOYSA-N

>  <Reference>
Mitigating, Dawson

$$$$
GLYCERYL_GUAIACOLATE
  MOE2013           2D

 14 14  0  0  1  0  0  0  0  0999 V2000
    2.5980    0.0000    0.0000 C   0  0  0  0  0  0  0  0  0  0  0  0
    1.2990   -0.7500    0.0000 O   0  0  0  0  0  0  0  0  0  0  0  0
    0.0000    0.0000    0.0000 C   0  0  0  0  0  0  0  0  0  0  0  0
    0.0000    1.5000    0.0000 C   0  0  0  0  0  0  0  0  0  0  0  0
   -1.2990    2.2500    0.0000 C   0  0  0  0  0  0  0  0  0  0  0  0
   -2.5980    1.5000    0.0000 C   0  0  0  0  0  0  0  0  0  0  0  0
   -2.5980    0.0000    0.0000 C   0  0  0  0  0  0  0  0  0  0  0  0
   -1.2990   -0.7500    0.0000 C   0  0  0  0  0  0  0  0  0  0  0  0
   -1.2990   -2.2500    0.0000 O   0  0  0  0  0  0  0  0  0  0  0  0
   -2.5980   -3.0000    0.0000 C   0  0  0  0  0  0  0  0  0  0  0  0
   -2.5980   -4.5000    0.0000 C   0  0  3  0  0  0  0  0  0  0  0  0
   -3.8970   -5.2500    0.0000 C   0  0  0  0  0  0  0  0  0  0  0  0
   -3.8970   -6.7500    0.0000 O   0  0  0  0  0  0  0  0  0  0  0  0
   -1.2990   -5.2500    0.0000 O   0  0  0  0  0  0  0  0  0  0  0  0
  1  2  1  0  0  0  0
  2  3  1  0  0  0  0
  3  4  1  0  0  0  0
  3  8  2  0  0  0  0
  4  5  2  0  0  0  0
  5  6  1  0  0  0  0
  6  7  2  0  0  0  0
  7  8  1  0  0  0  0
  8  9  1  0  0  0  0
  9 10  1  0  0  0  0
 10 11  1  0  0  0  0
 11 12  1  0  0  0  0
 11 14  1  0  0  0  0
 12 13  1  0  0  0  0
M  END
>  <n>
384

>  <SMILES>
O(CC(O)CO)c1ccccc1OC

>  <IC50>
>1000

>  <Class>
0

>  <NAME>
GLYCERYL GUAIACOLATE

>  <INCHI_KEY>
HSRJKNPTNIJEKV-UHFFFAOYSA-N

>  <Reference>
Mitigating the inhibition of human Bile Salt Export Pump by drugs_ opportunities provided by physicochemical property modulation,  in-silico modeling and structural modification_SI

$$$$
GUAIACOL
  MOE2013           2D

  9  9  0  0  0  0  0  0  0  0999 V2000
    2.5980    0.0000    0.0000 C   0  0  0  0  0  0  0  0  0  0  0  0
    1.2990   -0.7500    0.0000 O   0  0  0  0  0  0  0  0  0  0  0  0
    0.0000    0.0000    0.0000 C   0  0  0  0  0  0  0  0  0  0  0  0
    0.0000    1.5000    0.0000 C   0  0  0  0  0  0  0  0  0  0  0  0
   -1.2990    2.2500    0.0000 C   0  0  0  0  0  0  0  0  0  0  0  0
   -2.5980    1.5000    0.0000 C   0  0  0  0  0  0  0  0  0  0  0  0
   -2.5980    0.0000    0.0000 C   0  0  0  0  0  0  0  0  0  0  0  0
   -1.2990   -0.7500    0.0000 C   0  0  0  0  0  0  0  0  0  0  0  0
   -1.2990   -2.2500    0.0000 O   0  0  0  0  0  0  0  0  0  0  0  0
  1  2  1  0  0  0  0
  2  3  1  0  0  0  0
  3  4  1  0  0  0  0
  3  8  2  0  0  0  0
  4  5  2  0  0  0  0
  5  6  1  0  0  0  0
  6  7  2  0  0  0  0
  7  8  1  0  0  0  0
  8  9  1  0  0  0  0
M  END
>  <n>
385

>  <SMILES>
O(C)c1ccccc1O

>  <IC50>
>1000

>  <Class>
0

>  <NAME>
GUAIACOL

>  <INCHI_KEY>
LHGVFZTZFXWLCP-UHFFFAOYSA-N

>  <Reference>
Mitigating the inhibition of human Bile Salt Export Pump by drugs_ opportunities provided by physicochemical property modulation,  in-silico modeling and structural modification_SI

$$$$
GUANETHIDINE
  MOE2013           2D

 14 14  0  0  0  0  0  0  0  0999 V2000
    0.0000    0.0000    0.0000 C   0  0  0  0  0  0  0  0  0  0  0  0
    0.0000    1.5000    0.0000 C   0  0  0  0  0  0  0  0  0  0  0  0
   -1.0610    2.5610    0.0000 C   0  0  0  0  0  0  0  0  0  0  0  0
   -2.5610    2.5610    0.0000 C   0  0  0  0  0  0  0  0  0  0  0  0
   -3.6210    1.5000    0.0000 N   0  0  0  0  0  0  0  0  0  0  0  0
   -3.6210    0.0000    0.0000 C   0  0  0  0  0  0  0  0  0  0  0  0
   -2.5610   -1.0610    0.0000 C   0  0  0  0  0  0  0  0  0  0  0  0
   -1.0610   -1.0610    0.0000 C   0  0  0  0  0  0  0  0  0  0  0  0
   -5.0070    2.0740    0.0000 C   0  0  0  0  0  0  0  0  0  0  0  0
   -6.1970    1.1610    0.0000 C   0  0  0  0  0  0  0  0  0  0  0  0
   -7.5830    1.7350    0.0000 N   0  0  0  0  0  0  0  0  0  0  0  0
   -8.7730    0.8220    0.0000 C   0  0  0  0  0  0  0  0  0  0  0  0
  -10.1590    1.3960    0.0000 N   0  0  0  0  0  0  0  0  0  0  0  0
   -8.5770   -0.6650    0.0000 N   0  0  0  0  0  0  0  0  0  0  0  0
  1  2  1  0  0  0  0
  1  8  1  0  0  0  0
  2  3  1  0  0  0  0
  3  4  1  0  0  0  0
  4  5  1  0  0  0  0
  5  6  1  0  0  0  0
  5  9  1  0  0  0  0
  6  7  1  0  0  0  0
  7  8  1  0  0  0  0
  9 10  1  0  0  0  0
 10 11  1  0  0  0  0
 11 12  1  0  0  0  0
 12 13  2  0  0  0  0
 12 14  1  0  0  0  0
M  END
>  <n>
386

>  <SMILES>
N(CCN1CCCCCCC1)C(N)=N

>  <IC50>
>1000

>  <Class>
0

>  <NAME>
GUANETHIDINE

>  <INCHI_KEY>
ACGDKVXYNVEAGU-UHFFFAOYSA-N

>  <Reference>
Mitigating the inhibition of human Bile Salt Export Pump by drugs_ opportunities provided by physicochemical property modulation,  in-silico modeling and structural modification_SI

$$$$
mol387
  MOE2013           2D

 40 44  0  0  0  0  0  0  0  0999 V2000
    9.2290   -7.1350    0.0000 C   0  0  0  0  0  0  0  0  0  0  0  0
    7.7370   -6.9780    0.0000 S   0  0  0  0  0  0  0  0  0  0  0  0
    6.2820   -7.3410    0.0000 O   0  0  0  0  0  0  0  0  0  0  0  0
    7.8420   -8.4740    0.0000 O   0  0  0  0  0  0  0  0  0  0  0  0
    7.1270   -5.6080    0.0000 C   0  0  0  0  0  0  0  0  0  0  0  0
    5.6350   -5.4510    0.0000 C   0  0  0  0  0  0  0  0  0  0  0  0
    5.0250   -4.0810    0.0000 N   0  0  0  0  0  0  0  0  0  0  0  0
    3.5330   -3.9240    0.0000 C   0  0  0  0  0  0  0  0  0  0  0  0
    2.9230   -2.5540    0.0000 C   0  0  0  0  0  0  0  0  0  0  0  0
    3.6730   -1.2550    0.0000 C   0  0  0  0  0  0  0  0  0  0  0  0
    2.6690   -0.1400    0.0000 C   0  0  0  0  0  0  0  0  0  0  0  0
    1.2990   -0.7500    0.0000 C   0  0  0  0  0  0  0  0  0  0  0  0
    1.4560   -2.2420    0.0000 O   0  0  0  0  0  0  0  0  0  0  0  0
    0.0000    0.0000    0.0000 C   0  0  0  0  0  0  0  0  0  0  0  0
    0.0000    1.5000    0.0000 C   0  0  0  0  0  0  0  0  0  0  0  0
   -1.2990    2.2500    0.0000 C   0  0  0  0  0  0  0  0  0  0  0  0
   -2.5980    1.5000    0.0000 C   0  0  0  0  0  0  0  0  0  0  0  0
   -2.5980    0.0000    0.0000 C   0  0  0  0  0  0  0  0  0  0  0  0
   -1.2990   -0.7500    0.0000 C   0  0  0  0  0  0  0  0  0  0  0  0
   -3.8970   -0.7500    0.0000 C   0  0  0  0  0  0  0  0  0  0  0  0
   -5.1960    0.0000    0.0000 N   0  0  0  0  0  0  0  0  0  0  0  0
   -5.1960    1.5000    0.0000 C   0  0  0  0  0  0  0  0  0  0  0  0
   -3.8970    2.2500    0.0000 N   0  0  0  0  0  0  0  0  0  0  0  0
   -3.8970   -2.2500    0.0000 N   0  0  0  0  0  0  0  0  0  0  0  0
   -5.1960   -3.0000    0.0000 C   0  0  0  0  0  0  0  0  0  0  0  0
   -6.4950   -2.2500    0.0000 C   0  0  0  0  0  0  0  0  0  0  0  0
   -7.7940   -3.0000    0.0000 C   0  0  0  0  0  0  0  0  0  0  0  0
   -7.7940   -4.5000    0.0000 C   0  0  0  0  0  0  0  0  0  0  0  0
   -6.4950   -5.2500    0.0000 C   0  0  0  0  0  0  0  0  0  0  0  0
   -5.1960   -4.5000    0.0000 C   0  0  0  0  0  0  0  0  0  0  0  0
   -6.4950   -6.7500    0.0000 Cl  0  0  0  0  0  0  0  0  0  0  0  0
   -9.0930   -5.2500    0.0000 O   0  0  0  0  0  0  0  0  0  0  0  0
  -10.3920   -4.5000    0.0000 C   0  0  0  0  0  0  0  0  0  0  0  0
  -11.6910   -5.2500    0.0000 C   0  0  0  0  0  0  0  0  0  0  0  0
  -12.9900   -4.5000    0.0000 C   0  0  0  0  0  0  0  0  0  0  0  0
  -14.2890   -5.2500    0.0000 C   0  0  0  0  0  0  0  0  0  0  0  0
  -14.2890   -6.7500    0.0000 C   0  0  0  0  0  0  0  0  0  0  0  0
  -12.9900   -7.5000    0.0000 C   0  0  0  0  0  0  0  0  0  0  0  0
  -11.6910   -6.7500    0.0000 C   0  0  0  0  0  0  0  0  0  0  0  0
  -12.9900   -9.0000    0.0000 F   0  0  0  0  0  0  0  0  0  0  0  0
  1  2  1  0  0  0  0
  2  3  2  0  0  0  0
  2  4  2  0  0  0  0
  2  5  1  0  0  0  0
  5  6  1  0  0  0  0
  6  7  1  0  0  0  0
  7  8  1  0  0  0  0
  8  9  1  0  0  0  0
  9 10  2  0  0  0  0
  9 13  1  0  0  0  0
 10 11  1  0  0  0  0
 11 12  2  0  0  0  0
 12 13  1  0  0  0  0
 12 14  1  0  0  0  0
 14 15  1  0  0  0  0
 14 19  2  0  0  0  0
 15 16  2  0  0  0  0
 16 17  1  0  0  0  0
 17 18  1  0  0  0  0
 17 23  2  0  0  0  0
 18 19  1  0  0  0  0
 18 20  2  0  0  0  0
 20 21  1  0  0  0  0
 20 24  1  0  0  0  0
 21 22  2  0  0  0  0
 22 23  1  0  0  0  0
 24 25  1  0  0  0  0
 25 26  1  0  0  0  0
 25 30  2  0  0  0  0
 26 27  2  0  0  0  0
 27 28  1  0  0  0  0
 28 29  2  0  0  0  0
 28 32  1  0  0  0  0
 29 30  1  0  0  0  0
 29 31  1  0  0  0  0
 32 33  1  0  0  0  0
 33 34  1  0  0  0  0
 34 35  1  0  0  0  0
 34 39  2  0  0  0  0
 35 36  2  0  0  0  0
 36 37  1  0  0  0  0
 37 38  2  0  0  0  0
 38 39  1  0  0  0  0
 38 40  1  0  0  0  0
M  END
>  <n>
387

>  <SMILES>
Clc1cc(Nc2ncnc3c2cc(cc3)-c2oc(cc2)CNCCS(=O)(=O)C)ccc1OCc1cc(F)ccc1

>  <IC50>
<10

>  <Class>
1

>  <NAME>
GW 572016

>  <INCHI_KEY>
BCFGMOOMADDAQU-UHFFFAOYSA-N

>  <Reference>
Mitigating the inhibition of human Bile Salt Export Pump by drugs_ opportunities provided by physicochemical property modulation,  in-silico modeling and structural modification_SI

$$$$
Gavestinel
  MOE2013           2D

 25 27  0  0  0  0  0  0  0  0999 V2000
    5.7540   -7.3920    0.0000 C   0  0  0  0  0  0  0  0  0  0  0  0
    5.9110   -5.9000    0.0000 C   0  0  0  0  0  0  0  0  0  0  0  0
    4.6970   -5.0180    0.0000 C   0  0  0  0  0  0  0  0  0  0  0  0
    3.3270   -5.6290    0.0000 C   0  0  0  0  0  0  0  0  0  0  0  0
    3.1700   -7.1200    0.0000 C   0  0  0  0  0  0  0  0  0  0  0  0
    4.3840   -8.0020    0.0000 C   0  0  0  0  0  0  0  0  0  0  0  0
    2.1140   -4.7470    0.0000 N   0  0  0  0  0  0  0  0  0  0  0  0
    2.2700   -3.2550    0.0000 C   0  0  0  0  0  0  0  0  0  0  0  0
    3.6410   -2.6450    0.0000 O   0  0  0  0  0  0  0  0  0  0  0  0
    1.0570   -2.3740    0.0000 C   0  0  0  0  0  0  0  0  0  0  0  0
    1.2140   -0.8820    0.0000 C   0  0  0  0  0  0  0  0  0  0  0  0
    0.0000    0.0000    0.0000 C   0  0  0  0  0  0  0  0  0  0  0  0
    0.0000    1.5000    0.0000 C   0  0  0  0  0  0  0  0  0  0  0  0
   -1.4270    1.9640    0.0000 C   0  0  0  0  0  0  0  0  0  0  0  0
   -1.7380    3.4310    0.0000 C   0  0  0  0  0  0  0  0  0  0  0  0
   -0.6240    4.4340    0.0000 C   0  0  0  0  0  0  0  0  0  0  0  0
    0.8030    3.9710    0.0000 C   0  0  0  0  0  0  0  0  0  0  0  0
    1.1150    2.5040    0.0000 C   0  0  0  0  0  0  0  0  0  0  0  0
    2.5410    2.0400    0.0000 Cl  0  0  0  0  0  0  0  0  0  0  0  0
   -0.9360    5.9020    0.0000 Cl  0  0  0  0  0  0  0  0  0  0  0  0
   -2.3080    0.7500    0.0000 N   0  0  0  0  0  0  0  0  0  0  0  0
   -1.4270   -0.4640    0.0000 C   0  0  0  0  0  0  0  0  0  0  0  0
   -1.8900   -1.8900    0.0000 C   0  0  0  0  0  0  0  0  0  0  0  0
   -3.3570   -2.2020    0.0000 O   0  0  0  0  0  0  0  0  0  0  0  0
   -0.8860   -3.0050    0.0000 O   0  0  0  0  0  0  0  0  0  0  0  0
  1  2  2  0  0  0  0
  1  6  1  0  0  0  0
  2  3  1  0  0  0  0
  3  4  2  0  0  0  0
  4  5  1  0  0  0  0
  4  7  1  0  0  0  0
  5  6  2  0  0  0  0
  7  8  1  0  0  0  0
  8  9  2  0  0  0  0
  8 10  1  0  0  0  0
 10 11  2  0  0  0  0
 11 12  1  0  0  0  0
 12 13  1  0  0  0  0
 12 22  2  0  0  0  0
 13 14  1  0  0  0  0
 13 18  2  0  0  0  0
 14 15  2  0  0  0  0
 14 21  1  0  0  0  0
 15 16  1  0  0  0  0
 16 17  2  0  0  0  0
 16 20  1  0  0  0  0
 17 18  1  0  0  0  0
 18 19  1  0  0  0  0
 21 22  1  0  0  0  0
 22 23  1  0  0  0  0
 23 24  2  0  0  0  0
 23 25  1  0  0  0  0
M  END
>  <n>
378

>  <SMILES>
Clc1c2c([nH]c(C(O)=O)c2\C=C\C(=O)Nc2ccccc2)cc(Cl)c1

>  <IC50>
<10

>  <Class>
1

>  <NAME>
Gavestinel

>  <INCHI_KEY>
WZBNEZWCNKUOSM-VOTSOKGWSA-N

>  <Reference>
Mitigating the inhibition of human Bile Salt Export Pump by drugs_ opportunities provided by physicochemical property modulation,  in-silico modeling and structural modification_SI

$$$$
HALCINONIDE
  MOE2013           2D

 31 35  0  0  1  0  0  0  0  0999 V2000
    3.8970    0.7500    0.0000 C   0  0  0  0  0  0  0  0  0  0  0  0
    3.8970    2.2500    0.0000 C   0  0  2  0  0  0  0  0  0  0  0  0
    5.1960    1.5000    0.0000 C   0  0  0  0  0  0  0  0  0  0  0  0
    6.4950    2.2500    0.0000 C   0  0  0  0  0  0  0  0  0  0  0  0
    6.4950    3.7500    0.0000 C   0  0  0  0  0  0  0  0  0  0  0  0
    7.7940    4.5000    0.0000 O   0  0  0  0  0  0  0  0  0  0  0  0
    5.1960    4.5000    0.0000 C   0  0  0  0  0  0  0  0  0  0  0  0
    3.8970    3.7500    0.0000 C   0  0  0  0  0  0  0  0  0  0  0  0
    2.5980    4.5000    0.0000 C   0  0  0  0  0  0  0  0  0  0  0  0
    1.2990    3.7500    0.0000 C   0  0  0  0  0  0  0  0  0  0  0  0
    1.2990    2.2500    0.0000 C   0  0  3  0  0  0  0  0  0  0  0  0
    2.5980    1.5000    0.0000 C   0  0  2  0  0  0  0  0  0  0  0  0
    2.5980    0.0000    0.0000 C   0  0  3  0  0  0  0  0  0  0  0  0
    1.2990   -0.7500    0.0000 C   0  0  0  0  0  0  0  0  0  0  0  0
    0.0000    0.0000    0.0000 C   0  0  1  0  0  0  0  0  0  0  0  0
    0.0000    1.5000    0.0000 C   0  0  3  0  0  0  0  0  0  0  0  0
   -1.4270    1.9640    0.0000 C   0  0  0  0  0  0  0  0  0  0  0  0
   -2.3080    0.7500    0.0000 C   0  0  3  0  0  0  0  0  0  0  0  0
   -1.4270   -0.4640    0.0000 C   0  0  1  0  0  0  0  0  0  0  0  0
   -2.3080   -1.6770    0.0000 O   0  0  0  0  0  0  0  0  0  0  0  0
   -3.7350   -1.2140    0.0000 C   0  0  0  0  0  0  0  0  0  0  0  0
   -3.7350    0.2860    0.0000 O   0  0  0  0  0  0  0  0  0  0  0  0
   -5.2270   -1.0570    0.0000 C   0  0  0  0  0  0  0  0  0  0  0  0
   -4.0470   -2.6810    0.0000 C   0  0  0  0  0  0  0  0  0  0  0  0
   -0.5450   -1.6770    0.0000 C   0  0  0  0  0  0  0  0  0  0  0  0
    0.9470   -1.5200    0.0000 O   0  0  0  0  0  0  0  0  0  0  0  0
   -1.1550   -3.0470    0.0000 C   0  0  0  0  0  0  0  0  0  0  0  0
   -2.6470   -3.2040    0.0000 Cl  0  0  0  0  0  0  0  0  0  0  0  0
   -0.1570   -1.4920    0.0000 C   0  0  0  0  0  0  0  0  0  0  0  0
    3.8970   -0.7500    0.0000 O   0  0  0  0  0  0  0  0  0  0  0  0
    3.8970    0.7500    0.0000 F   0  0  0  0  0  0  0  0  0  0  0  0
  2  1  1  1  0  0  0
  2  3  1  0  0  0  0
  2  8  1  0  0  0  0
  2 12  1  0  0  0  0
  3  4  1  0  0  0  0
  4  5  1  0  0  0  0
  5  6  2  0  0  0  0
  5  7  1  0  0  0  0
  7  8  2  0  0  0  0
  8  9  1  0  0  0  0
  9 10  1  0  0  0  0
 10 11  1  0  0  0  0
 11 12  1  0  0  0  0
 11 16  1  0  0  0  0
 12 13  1  0  0  0  0
 12 31  1  6  0  0  0
 13 14  1  0  0  0  0
 13 30  1  0  0  0  0
 14 15  1  0  0  0  0
 15 16  1  0  0  0  0
 15 19  1  0  0  0  0
 15 29  1  1  0  0  0
 16 17  1  0  0  0  0
 17 18  1  0  0  0  0
 18 19  1  0  0  0  0
 18 22  1  0  0  0  0
 19 20  1  0  0  0  0
 19 25  1  1  0  0  0
 20 21  1  0  0  0  0
 21 22  1  0  0  0  0
 21 23  1  0  0  0  0
 21 24  1  0  0  0  0
 25 26  2  0  0  0  0
 25 27  1  0  0  0  0
 27 28  1  0  0  0  0
M  END
>  <n>
388

>  <SMILES>
ClCC(=O)[C@@]12OC(O[C@@H]1C[C@H]1[C@@H]3CCC4=CC(=O)CC[C@]4(C)[C@@]3(F)[C@@H](O)C[C@@]12C)(C)C

>  <IC50>
<10

>  <Class>
1

>  <NAME>
HALCINONIDE

>  <INCHI_KEY>
MUQNGPZZQDCDFT-JNQJZLCISA-N

>  <Reference>
Mitigating the inhibition of human Bile Salt Export Pump by drugs_ opportunities provided by physicochemical property modulation,  in-silico modeling and structural modification_SI

$$$$
HEXAMETHYLENE_BISACETAMIDE
  MOE2013           2D

 14 13  0  0  0  0  0  0  0  0999 V2000
    0.0000    0.0000    0.0000 C   0  0  0  0  0  0  0  0  0  0  0  0
    0.0000    1.5000    0.0000 C   0  0  0  0  0  0  0  0  0  0  0  0
    1.2990    2.2500    0.0000 O   0  0  0  0  0  0  0  0  0  0  0  0
   -1.2990    2.2500    0.0000 N   0  0  0  0  0  0  0  0  0  0  0  0
   -1.2990    3.7500    0.0000 C   0  0  0  0  0  0  0  0  0  0  0  0
   -2.5980    4.5000    0.0000 C   0  0  0  0  0  0  0  0  0  0  0  0
   -2.5980    6.0000    0.0000 C   0  0  0  0  0  0  0  0  0  0  0  0
   -3.8970    6.7500    0.0000 C   0  0  0  0  0  0  0  0  0  0  0  0
   -3.8970    8.2500    0.0000 C   0  0  0  0  0  0  0  0  0  0  0  0
   -5.1960    9.0000    0.0000 C   0  0  0  0  0  0  0  0  0  0  0  0
   -5.1960   10.5000    0.0000 N   0  0  0  0  0  0  0  0  0  0  0  0
   -6.4950   11.2500    0.0000 C   0  0  0  0  0  0  0  0  0  0  0  0
   -6.4950   12.7500    0.0000 O   0  0  0  0  0  0  0  0  0  0  0  0
   -7.7940   10.5000    0.0000 C   0  0  0  0  0  0  0  0  0  0  0  0
  1  2  1  0  0  0  0
  2  3  2  0  0  0  0
  2  4  1  0  0  0  0
  4  5  1  0  0  0  0
  5  6  1  0  0  0  0
  6  7  1  0  0  0  0
  7  8  1  0  0  0  0
  8  9  1  0  0  0  0
  9 10  1  0  0  0  0
 10 11  1  0  0  0  0
 11 12  1  0  0  0  0
 12 13  2  0  0  0  0
 12 14  1  0  0  0  0
M  END
>  <n>
390

>  <SMILES>
O=C(NCCCCCCNC(=O)C)C

>  <IC50>
>1000

>  <Class>
0

>  <NAME>
HEXAMETHYLENE BISACETAMIDE

>  <INCHI_KEY>
BNQSTAOJRULKNX-UHFFFAOYSA-N

>  <Reference>
Mitigating the inhibition of human Bile Salt Export Pump by drugs_ opportunities provided by physicochemical property modulation,  in-silico modeling and structural modification_SI

$$$$
HEXOPRENALINE
  MOE2013           2D

 30 31  0  0  1  0  0  0  0  0999 V2000
    0.0000    0.0000    0.0000 C   0  0  0  0  0  0  0  0  0  0  0  0
    0.0000    1.5000    0.0000 C   0  0  0  0  0  0  0  0  0  0  0  0
   -1.2990    2.2500    0.0000 C   0  0  0  0  0  0  0  0  0  0  0  0
   -2.5980    1.5000    0.0000 C   0  0  0  0  0  0  0  0  0  0  0  0
   -2.5980    0.0000    0.0000 C   0  0  0  0  0  0  0  0  0  0  0  0
   -1.2990   -0.7500    0.0000 C   0  0  0  0  0  0  0  0  0  0  0  0
   -1.2990   -2.2500    0.0000 C   0  0  3  0  0  0  0  0  0  0  0  0
    0.0000   -3.0000    0.0000 C   0  0  0  0  0  0  0  0  0  0  0  0
    0.0000   -4.5000    0.0000 N   0  0  0  0  0  0  0  0  0  0  0  0
    1.2990   -5.2500    0.0000 C   0  0  0  0  0  0  0  0  0  0  0  0
    1.2990   -6.7500    0.0000 C   0  0  0  0  0  0  0  0  0  0  0  0
    2.5980   -7.5000    0.0000 C   0  0  0  0  0  0  0  0  0  0  0  0
    2.5980   -9.0000    0.0000 C   0  0  0  0  0  0  0  0  0  0  0  0
    3.8970   -9.7500    0.0000 C   0  0  0  0  0  0  0  0  0  0  0  0
    3.8970  -11.2500    0.0000 C   0  0  0  0  0  0  0  0  0  0  0  0
    5.1960  -12.0000    0.0000 N   0  0  0  0  0  0  0  0  0  0  0  0
    5.1960  -13.5000    0.0000 C   0  0  0  0  0  0  0  0  0  0  0  0
    6.4950  -14.2500    0.0000 C   0  0  3  0  0  0  0  0  0  0  0  0
    6.4950  -15.7500    0.0000 C   0  0  0  0  0  0  0  0  0  0  0  0
    5.1960  -16.5000    0.0000 C   0  0  0  0  0  0  0  0  0  0  0  0
    5.1960  -18.0000    0.0000 C   0  0  0  0  0  0  0  0  0  0  0  0
    6.4950  -18.7500    0.0000 C   0  0  0  0  0  0  0  0  0  0  0  0
    7.7940  -18.0000    0.0000 C   0  0  0  0  0  0  0  0  0  0  0  0
    7.7940  -16.5000    0.0000 C   0  0  0  0  0  0  0  0  0  0  0  0
    9.0930  -18.7500    0.0000 O   0  0  0  0  0  0  0  0  0  0  0  0
    6.4950  -20.2500    0.0000 O   0  0  0  0  0  0  0  0  0  0  0  0
    7.7940  -13.5000    0.0000 O   0  0  0  0  0  0  0  0  0  0  0  0
   -2.5980   -3.0000    0.0000 O   0  0  0  0  0  0  0  0  0  0  0  0
   -3.8970    2.2500    0.0000 O   0  0  0  0  0  0  0  0  0  0  0  0
   -1.2990    3.7500    0.0000 O   0  0  0  0  0  0  0  0  0  0  0  0
  1  2  1  0  0  0  0
  1  6  2  0  0  0  0
  2  3  2  0  0  0  0
  3  4  1  0  0  0  0
  3 30  1  0  0  0  0
  4  5  2  0  0  0  0
  4 29  1  0  0  0  0
  5  6  1  0  0  0  0
  6  7  1  0  0  0  0
  7  8  1  0  0  0  0
  7 28  1  0  0  0  0
  8  9  1  0  0  0  0
  9 10  1  0  0  0  0
 10 11  1  0  0  0  0
 11 12  1  0  0  0  0
 12 13  1  0  0  0  0
 13 14  1  0  0  0  0
 14 15  1  0  0  0  0
 15 16  1  0  0  0  0
 16 17  1  0  0  0  0
 17 18  1  0  0  0  0
 18 19  1  0  0  0  0
 18 27  1  0  0  0  0
 19 20  1  0  0  0  0
 19 24  2  0  0  0  0
 20 21  2  0  0  0  0
 21 22  1  0  0  0  0
 22 23  2  0  0  0  0
 22 26  1  0  0  0  0
 23 24  1  0  0  0  0
 23 25  1  0  0  0  0
M  END
>  <n>
391

>  <SMILES>
Oc1cc(ccc1O)C(O)CNCCCCCCNCC(O)c1cc(O)c(O)cc1

>  <IC50>
>1000

>  <Class>
0

>  <NAME>
HEXOPRENALINE

>  <INCHI_KEY>
OXLZNBCNGJWPRV-UHFFFAOYSA-N

>  <Reference>
Mitigating the inhibition of human Bile Salt Export Pump by drugs_ opportunities provided by physicochemical property modulation,  in-silico modeling and structural modification_SI

$$$$
HEXYLCAINE_HYDROCHLORIDE
  MOE2013           2D

 19 20  0  0  1  0  0  0  0  0999 V2000
    3.8970   -2.2500    0.0000 C   0  0  0  0  0  0  0  0  0  0  0  0
    2.5980   -3.0000    0.0000 C   0  0  3  0  0  0  0  0  0  0  0  0
    1.2990   -2.2500    0.0000 C   0  0  0  0  0  0  0  0  0  0  0  0
    1.2990   -0.7500    0.0000 N   0  0  0  0  0  0  0  0  0  0  0  0
    0.0000    0.0000    0.0000 C   0  0  0  0  0  0  0  0  0  0  0  0
    0.0000    1.5000    0.0000 C   0  0  0  0  0  0  0  0  0  0  0  0
   -1.2990    2.2500    0.0000 C   0  0  0  0  0  0  0  0  0  0  0  0
   -2.5980    1.5000    0.0000 C   0  0  0  0  0  0  0  0  0  0  0  0
   -2.5980    0.0000    0.0000 C   0  0  0  0  0  0  0  0  0  0  0  0
   -1.2990   -0.7500    0.0000 C   0  0  0  0  0  0  0  0  0  0  0  0
    2.5980   -4.5000    0.0000 O   0  0  0  0  0  0  0  0  0  0  0  0
    3.8970   -5.2500    0.0000 C   0  0  0  0  0  0  0  0  0  0  0  0
    5.1960   -4.5000    0.0000 O   0  0  0  0  0  0  0  0  0  0  0  0
    3.8970   -6.7500    0.0000 C   0  0  0  0  0  0  0  0  0  0  0  0
    2.5980   -7.5000    0.0000 C   0  0  0  0  0  0  0  0  0  0  0  0
    2.5980   -9.0000    0.0000 C   0  0  0  0  0  0  0  0  0  0  0  0
    3.8970   -9.7500    0.0000 C   0  0  0  0  0  0  0  0  0  0  0  0
    5.1960   -9.0000    0.0000 C   0  0  0  0  0  0  0  0  0  0  0  0
    5.1960   -7.5000    0.0000 C   0  0  0  0  0  0  0  0  0  0  0  0
  1  2  1  0  0  0  0
  2  3  1  0  0  0  0
  2 11  1  0  0  0  0
  3  4  1  0  0  0  0
  4  5  1  0  0  0  0
  5  6  1  0  0  0  0
  5 10  1  0  0  0  0
  6  7  1  0  0  0  0
  7  8  1  0  0  0  0
  8  9  1  0  0  0  0
  9 10  1  0  0  0  0
 11 12  1  0  0  0  0
 12 13  2  0  0  0  0
 12 14  1  0  0  0  0
 14 15  1  0  0  0  0
 14 19  2  0  0  0  0
 15 16  2  0  0  0  0
 16 17  1  0  0  0  0
 17 18  2  0  0  0  0
 18 19  1  0  0  0  0
M  END
>  <n>
392

>  <SMILES>
O(C(=O)c1ccccc1)C(CNC1CCCCC1)C

>  <IC50>
505.7

>  <Class>
0

>  <NAME>
HEXYLCAINE HYDROCHLORIDE

>  <INCHI_KEY>
DKLKMKYDWHYZTD-UHFFFAOYSA-N

>  <Reference>
Mitigating the inhibition of human Bile Salt Export Pump by drugs_ opportunities provided by physicochemical property modulation,  in-silico modeling and structural modification_SI

$$$$
HISTAMINE
  MOE2013           2D

  8  8  0  0  0  0  0  0  0  0999 V2000
    0.0000    0.0000    0.0000 C   0  0  0  0  0  0  0  0  0  0  0  0
    0.0000    1.5000    0.0000 C   0  0  0  0  0  0  0  0  0  0  0  0
   -1.4270    1.9640    0.0000 N   0  0  0  0  0  0  0  0  0  0  0  0
   -2.3080    0.7500    0.0000 C   0  0  0  0  0  0  0  0  0  0  0  0
   -1.4270   -0.4640    0.0000 N   0  0  0  0  0  0  0  0  0  0  0  0
    1.2140    2.3820    0.0000 C   0  0  0  0  0  0  0  0  0  0  0  0
    1.0570    3.8740    0.0000 C   0  0  0  0  0  0  0  0  0  0  0  0
    2.2700    4.7550    0.0000 N   0  0  0  0  0  0  0  0  0  0  0  0
  1  2  2  0  0  0  0
  1  5  1  0  0  0  0
  2  3  1  0  0  0  0
  2  6  1  0  0  0  0
  3  4  2  0  0  0  0
  4  5  1  0  0  0  0
  6  7  1  0  0  0  0
  7  8  1  0  0  0  0
M  END
>  <n>
393

>  <SMILES>
[nH]1cc(nc1)CCN

>  <IC50>
>1000

>  <Class>
0

>  <NAME>
HISTAMINE

>  <INCHI_KEY>
NTYJJOPFIAHURM-UHFFFAOYSA-N

>  <Reference>
Mitigating the inhibition of human Bile Salt Export Pump by drugs_ opportunities provided by physicochemical property modulation,  in-silico modeling and structural modification_SI

$$$$
HYDRALAZINE
  MOE2013           2D

 12 13  0  0  0  0  0  0  0  0999 V2000
    0.0000    0.0000    0.0000 C   0  0  0  0  0  0  0  0  0  0  0  0
    0.0000    1.5000    0.0000 C   0  0  0  0  0  0  0  0  0  0  0  0
   -1.2990    2.2500    0.0000 C   0  0  0  0  0  0  0  0  0  0  0  0
   -2.5980    1.5000    0.0000 C   0  0  0  0  0  0  0  0  0  0  0  0
   -2.5980    0.0000    0.0000 C   0  0  0  0  0  0  0  0  0  0  0  0
   -1.2990   -0.7500    0.0000 C   0  0  0  0  0  0  0  0  0  0  0  0
   -3.8970   -0.7500    0.0000 C   0  0  0  0  0  0  0  0  0  0  0  0
   -5.1960    0.0000    0.0000 N   0  0  0  0  0  0  0  0  0  0  0  0
   -5.1960    1.5000    0.0000 N   0  0  0  0  0  0  0  0  0  0  0  0
   -3.8970    2.2500    0.0000 C   0  0  0  0  0  0  0  0  0  0  0  0
   -3.8970    3.7500    0.0000 N   0  0  0  0  0  0  0  0  0  0  0  0
   -5.1960    4.5000    0.0000 N   0  0  0  0  0  0  0  0  0  0  0  0
  1  2  1  0  0  0  0
  1  6  2  0  0  0  0
  2  3  2  0  0  0  0
  3  4  1  0  0  0  0
  4  5  1  0  0  0  0
  4 10  2  0  0  0  0
  5  6  1  0  0  0  0
  5  7  2  0  0  0  0
  7  8  1  0  0  0  0
  8  9  2  0  0  0  0
  9 10  1  0  0  0  0
 10 11  1  0  0  0  0
 11 12  1  0  0  0  0
M  END
>  <n>
395

>  <SMILES>
n1ncc2c(cccc2)c1NN

>  <IC50>
>1000

>  <Class>
0

>  <NAME>
HYDRALAZINE

>  <INCHI_KEY>
RPTUSVTUFVMDQK-UHFFFAOYSA-N

>  <Reference>
Mitigating the inhibition of human Bile Salt Export Pump by drugs_ opportunities provided by physicochemical property modulation,  in-silico modeling and structural modification_SI

$$$$
HYDROFLUMETHIAZIDE
  MOE2013           2D

 20 21  0  0  0  0  0  0  0  0999 V2000
    0.0000    0.0000    0.0000 C   0  0  0  0  0  0  0  0  0  0  0  0
    0.0000    1.5000    0.0000 C   0  0  0  0  0  0  0  0  0  0  0  0
   -1.2990    2.2500    0.0000 C   0  0  0  0  0  0  0  0  0  0  0  0
   -2.5980    1.5000    0.0000 C   0  0  0  0  0  0  0  0  0  0  0  0
   -2.5980    0.0000    0.0000 C   0  0  0  0  0  0  0  0  0  0  0  0
   -1.2990   -0.7500    0.0000 C   0  0  0  0  0  0  0  0  0  0  0  0
   -1.2990   -2.2500    0.0000 N   0  0  0  0  0  0  0  0  0  0  0  0
   -2.5980   -3.0000    0.0000 C   0  0  0  0  0  0  0  0  0  0  0  0
   -3.8970   -2.2500    0.0000 N   0  0  0  0  0  0  0  0  0  0  0  0
   -3.8970   -0.7500    0.0000 S   0  0  0  0  0  0  0  0  0  0  0  0
   -4.4100    0.6600    0.0000 O   0  0  0  0  0  0  0  0  0  0  0  0
   -5.3740   -1.0100    0.0000 O   0  0  0  0  0  0  0  0  0  0  0  0
   -1.2990    3.7500    0.0000 S   0  0  0  0  0  0  0  0  0  0  0  0
    0.0000    4.5000    0.0000 O   0  0  0  0  0  0  0  0  0  0  0  0
   -1.8120    5.1600    0.0000 O   0  0  0  0  0  0  0  0  0  0  0  0
   -2.7760    3.4900    0.0000 N   0  0  0  0  0  0  0  0  0  0  0  0
    1.2990    2.2500    0.0000 C   0  0  0  0  0  0  0  0  0  0  0  0
    2.5980    1.5000    0.0000 F   0  0  0  0  0  0  0  0  0  0  0  0
    2.2630    3.3990    0.0000 F   0  0  0  0  0  0  0  0  0  0  0  0
    0.3350    3.3990    0.0000 F   0  0  0  0  0  0  0  0  0  0  0  0
  1  2  1  0  0  0  0
  1  6  2  0  0  0  0
  2  3  2  0  0  0  0
  2 17  1  0  0  0  0
  3  4  1  0  0  0  0
  3 13  1  0  0  0  0
  4  5  2  0  0  0  0
  5  6  1  0  0  0  0
  5 10  1  0  0  0  0
  6  7  1  0  0  0  0
  7  8  1  0  0  0  0
  8  9  1  0  0  0  0
  9 10  1  0  0  0  0
 10 11  2  0  0  0  0
 10 12  2  0  0  0  0
 13 14  2  0  0  0  0
 13 15  2  0  0  0  0
 13 16  1  0  0  0  0
 17 18  1  0  0  0  0
 17 19  1  0  0  0  0
 17 20  1  0  0  0  0
M  END
>  <n>
396

>  <SMILES>
S(=O)(=O)(N)c1cc2S(=O)(=O)NCNc2cc1C(F)(F)F

>  <IC50>
>1000

>  <Class>
0

>  <NAME>
HYDROFLUMETHIAZIDE

>  <INCHI_KEY>
DMDGGSIALPNSEE-UHFFFAOYSA-N

>  <Reference>
Mitigating the inhibition of human Bile Salt Export Pump by drugs_ opportunities provided by physicochemical property modulation,  in-silico modeling and structural modification_SI

$$$$
HYDROXYZINE
  MOE2013           2D

 26 28  0  0  1  0  0  0  0  0999 V2000
    0.0000    0.0000    0.0000 C   0  0  0  0  0  0  0  0  0  0  0  0
    0.0000    1.5000    0.0000 C   0  0  0  0  0  0  0  0  0  0  0  0
   -1.2990    2.2500    0.0000 C   0  0  0  0  0  0  0  0  0  0  0  0
   -2.5980    1.5000    0.0000 C   0  0  0  0  0  0  0  0  0  0  0  0
   -2.5980    0.0000    0.0000 C   0  0  0  0  0  0  0  0  0  0  0  0
   -1.2990   -0.7500    0.0000 C   0  0  0  0  0  0  0  0  0  0  0  0
   -3.8970    2.2500    0.0000 C   0  0  3  0  0  0  0  0  0  0  0  0
   -5.1960    1.5000    0.0000 C   0  0  0  0  0  0  0  0  0  0  0  0
   -6.4950    2.2500    0.0000 C   0  0  0  0  0  0  0  0  0  0  0  0
   -7.7940    1.5000    0.0000 C   0  0  0  0  0  0  0  0  0  0  0  0
   -7.7940    0.0000    0.0000 C   0  0  0  0  0  0  0  0  0  0  0  0
   -6.4950   -0.7500    0.0000 C   0  0  0  0  0  0  0  0  0  0  0  0
   -5.1960    0.0000    0.0000 C   0  0  0  0  0  0  0  0  0  0  0  0
   -9.0930   -0.7500    0.0000 Cl  0  0  0  0  0  0  0  0  0  0  0  0
   -3.8970    3.7500    0.0000 N   0  0  0  0  0  0  0  0  0  0  0  0
   -2.5980    4.5000    0.0000 C   0  0  0  0  0  0  0  0  0  0  0  0
   -2.5980    6.0000    0.0000 C   0  0  0  0  0  0  0  0  0  0  0  0
   -3.8970    6.7500    0.0000 N   0  0  0  0  0  0  0  0  0  0  0  0
   -5.1960    6.0000    0.0000 C   0  0  0  0  0  0  0  0  0  0  0  0
   -5.1960    4.5000    0.0000 C   0  0  0  0  0  0  0  0  0  0  0  0
   -3.8970    8.2500    0.0000 C   0  0  0  0  0  0  0  0  0  0  0  0
   -2.5980    9.0000    0.0000 C   0  0  0  0  0  0  0  0  0  0  0  0
   -2.5980   10.5000    0.0000 O   0  0  0  0  0  0  0  0  0  0  0  0
   -1.2990   11.2500    0.0000 C   0  0  0  0  0  0  0  0  0  0  0  0
   -1.2990   12.7500    0.0000 C   0  0  0  0  0  0  0  0  0  0  0  0
    0.0000   13.5000    0.0000 O   0  0  0  0  0  0  0  0  0  0  0  0
  1  2  1  0  0  0  0
  1  6  2  0  0  0  0
  2  3  2  0  0  0  0
  3  4  1  0  0  0  0
  4  5  2  0  0  0  0
  4  7  1  0  0  0  0
  5  6  1  0  0  0  0
  7  8  1  0  0  0  0
  7 15  1  0  0  0  0
  8  9  1  0  0  0  0
  8 13  2  0  0  0  0
  9 10  2  0  0  0  0
 10 11  1  0  0  0  0
 11 12  2  0  0  0  0
 11 14  1  0  0  0  0
 12 13  1  0  0  0  0
 15 16  1  0  0  0  0
 15 20  1  0  0  0  0
 16 17  1  0  0  0  0
 17 18  1  0  0  0  0
 18 19  1  0  0  0  0
 18 21  1  0  0  0  0
 19 20  1  0  0  0  0
 21 22  1  0  0  0  0
 22 23  1  0  0  0  0
 23 24  1  0  0  0  0
 24 25  1  0  0  0  0
 25 26  1  0  0  0  0
M  END
>  <n>
397

>  <SMILES>
Clc1ccc(cc1)C(N1CCN(CC1)CCOCCO)c1ccccc1

>  <IC50>
72.91

>  <Class>
0

>  <NAME>
HYDROXYZINE

>  <INCHI_KEY>
ZQDWXGKKHFNSQK-UHFFFAOYSA-N

>  <Reference>
Mitigating the inhibition of human Bile Salt Export Pump by drugs_ opportunities provided by physicochemical property modulation,  in-silico modeling and structural modification_SI

$$$$
IBUPROFEN
  MOE2013           2D

 15 15  0  0  1  0  0  0  0  0999 V2000
    2.5980   -3.0000    0.0000 C   0  0  0  0  0  0  0  0  0  0  0  0
    1.2990   -2.2500    0.0000 C   0  0  0  0  0  0  0  0  0  0  0  0
    0.0000   -3.0000    0.0000 C   0  0  0  0  0  0  0  0  0  0  0  0
    1.2990   -0.7500    0.0000 C   0  0  0  0  0  0  0  0  0  0  0  0
    0.0000    0.0000    0.0000 C   0  0  0  0  0  0  0  0  0  0  0  0
    0.0000    1.5000    0.0000 C   0  0  0  0  0  0  0  0  0  0  0  0
   -1.2990    2.2500    0.0000 C   0  0  0  0  0  0  0  0  0  0  0  0
   -2.5980    1.5000    0.0000 C   0  0  0  0  0  0  0  0  0  0  0  0
   -2.5980    0.0000    0.0000 C   0  0  0  0  0  0  0  0  0  0  0  0
   -1.2990   -0.7500    0.0000 C   0  0  0  0  0  0  0  0  0  0  0  0
   -3.8970    2.2500    0.0000 C   0  0  3  0  0  0  0  0  0  0  0  0
   -5.1960    1.5000    0.0000 C   0  0  0  0  0  0  0  0  0  0  0  0
   -3.8970    3.7500    0.0000 C   0  0  0  0  0  0  0  0  0  0  0  0
   -5.1960    4.5000    0.0000 O   0  0  0  0  0  0  0  0  0  0  0  0
   -2.5980    4.5000    0.0000 O   0  0  0  0  0  0  0  0  0  0  0  0
  1  2  1  0  0  0  0
  2  3  1  0  0  0  0
  2  4  1  0  0  0  0
  4  5  1  0  0  0  0
  5  6  1  0  0  0  0
  5 10  2  0  0  0  0
  6  7  2  0  0  0  0
  7  8  1  0  0  0  0
  8  9  2  0  0  0  0
  8 11  1  0  0  0  0
  9 10  1  0  0  0  0
 11 12  1  0  0  0  0
 11 13  1  0  0  0  0
 13 14  2  0  0  0  0
 13 15  1  0  0  0  0
M  END
>  <n>
398

>  <SMILES>
OC(=O)C(C)c1ccc(cc1)CC(C)C

>  <IC50>
>789

>  <Class>
0

>  <NAME>
IBUPROFEN

>  <INCHI_KEY>
HEFNNWSXXWATRW-UHFFFAOYSA-N

>  <Reference>
Mitigating, Dawson

$$$$
IMILOXAN
  MOE2013           2D

 18 20  0  0  1  0  0  0  0  0999 V2000
    0.6530   -9.2130    0.0000 C   0  0  0  0  0  0  0  0  0  0  0  0
    0.3410   -7.7460    0.0000 C   0  0  0  0  0  0  0  0  0  0  0  0
    1.4560   -6.7420    0.0000 N   0  0  0  0  0  0  0  0  0  0  0  0
    2.9230   -7.0540    0.0000 C   0  0  0  0  0  0  0  0  0  0  0  0
    3.6730   -5.7550    0.0000 C   0  0  0  0  0  0  0  0  0  0  0  0
    2.6690   -4.6400    0.0000 N   0  0  0  0  0  0  0  0  0  0  0  0
    1.2990   -5.2500    0.0000 C   0  0  0  0  0  0  0  0  0  0  0  0
    0.0000   -4.5000    0.0000 C   0  0  0  0  0  0  0  0  0  0  0  0
    0.0000   -3.0000    0.0000 C   0  0  3  0  0  0  0  0  0  0  0  0
    1.2990   -2.2500    0.0000 C   0  0  0  0  0  0  0  0  0  0  0  0
    1.2990   -0.7500    0.0000 O   0  0  0  0  0  0  0  0  0  0  0  0
    0.0000    0.0000    0.0000 C   0  0  0  0  0  0  0  0  0  0  0  0
    0.0000    1.5000    0.0000 C   0  0  0  0  0  0  0  0  0  0  0  0
   -1.2990    2.2500    0.0000 C   0  0  0  0  0  0  0  0  0  0  0  0
   -2.5980    1.5000    0.0000 C   0  0  0  0  0  0  0  0  0  0  0  0
   -2.5980    0.0000    0.0000 C   0  0  0  0  0  0  0  0  0  0  0  0
   -1.2990   -0.7500    0.0000 C   0  0  0  0  0  0  0  0  0  0  0  0
   -1.2990   -2.2500    0.0000 O   0  0  0  0  0  0  0  0  0  0  0  0
  1  2  1  0  0  0  0
  2  3  1  0  0  0  0
  3  4  1  0  0  0  0
  3  7  1  0  0  0  0
  4  5  2  0  0  0  0
  5  6  1  0  0  0  0
  6  7  2  0  0  0  0
  7  8  1  0  0  0  0
  8  9  1  0  0  0  0
  9 10  1  0  0  0  0
  9 18  1  0  0  0  0
 10 11  1  0  0  0  0
 11 12  1  0  0  0  0
 12 13  1  0  0  0  0
 12 17  2  0  0  0  0
 13 14  2  0  0  0  0
 14 15  1  0  0  0  0
 15 16  2  0  0  0  0
 16 17  1  0  0  0  0
 17 18  1  0  0  0  0
M  END
>  <n>
400

>  <SMILES>
O1c2c(OCC1Cc1nccn1CC)cccc2

>  <IC50>
61.65

>  <Class>
0

>  <NAME>
IMILOXAN

>  <INCHI_KEY>
UXABARREKCJULM-UHFFFAOYSA-N

>  <Reference>
Mitigating the inhibition of human Bile Salt Export Pump by drugs_ opportunities provided by physicochemical property modulation,  in-silico modeling and structural modification_SI

$$$$
INDALPINE
  MOE2013           2D

 17 19  0  0  0  0  0  0  0  0999 V2000
    2.5980    1.5000    0.0000 C   0  0  0  0  0  0  0  0  0  0  0  0
    2.5980    0.0000    0.0000 C   0  0  0  0  0  0  0  0  0  0  0  0
    1.2990   -0.7500    0.0000 C   0  0  0  0  0  0  0  0  0  0  0  0
    0.0000    0.0000    0.0000 C   0  0  0  0  0  0  0  0  0  0  0  0
    0.0000    1.5000    0.0000 C   0  0  0  0  0  0  0  0  0  0  0  0
    1.2990    2.2500    0.0000 C   0  0  0  0  0  0  0  0  0  0  0  0
   -1.4270    1.9640    0.0000 C   0  0  0  0  0  0  0  0  0  0  0  0
   -2.3080    0.7500    0.0000 C   0  0  0  0  0  0  0  0  0  0  0  0
   -1.4270   -0.4640    0.0000 N   0  0  0  0  0  0  0  0  0  0  0  0
   -1.8900    3.3900    0.0000 C   0  0  0  0  0  0  0  0  0  0  0  0
   -3.3570    3.7020    0.0000 C   0  0  0  0  0  0  0  0  0  0  0  0
   -3.8210    5.1290    0.0000 C   0  0  0  0  0  0  0  0  0  0  0  0
   -2.8170    6.2430    0.0000 C   0  0  0  0  0  0  0  0  0  0  0  0
   -3.2810    7.6700    0.0000 C   0  0  0  0  0  0  0  0  0  0  0  0
   -4.7480    7.9820    0.0000 N   0  0  0  0  0  0  0  0  0  0  0  0
   -5.7520    6.8670    0.0000 C   0  0  0  0  0  0  0  0  0  0  0  0
   -5.2880    5.4400    0.0000 C   0  0  0  0  0  0  0  0  0  0  0  0
  1  2  1  0  0  0  0
  1  6  2  0  0  0  0
  2  3  2  0  0  0  0
  3  4  1  0  0  0  0
  4  5  2  0  0  0  0
  4  9  1  0  0  0  0
  5  6  1  0  0  0  0
  5  7  1  0  0  0  0
  7  8  2  0  0  0  0
  7 10  1  0  0  0  0
  8  9  1  0  0  0  0
 10 11  1  0  0  0  0
 11 12  1  0  0  0  0
 12 13  1  0  0  0  0
 12 17  1  0  0  0  0
 13 14  1  0  0  0  0
 14 15  1  0  0  0  0
 15 16  1  0  0  0  0
 16 17  1  0  0  0  0
M  END
>  <n>
401

>  <SMILES>
[nH]1cc(c2c1cccc2)CCC1CCNCC1

>  <IC50>
>1000

>  <Class>
0

>  <NAME>
INDALPINE

>  <INCHI_KEY>
SADQVAVFGNTEOD-UHFFFAOYSA-N

>  <Reference>
Mitigating the inhibition of human Bile Salt Export Pump by drugs_ opportunities provided by physicochemical property modulation,  in-silico modeling and structural modification_SI

$$$$
INDAPAMIDE
  MOE2013           2D

 24 26  0  0  1  0  0  0  0  0999 V2000
    1.2140   -0.8820    0.0000 C   0  0  0  0  0  0  0  0  0  0  0  0
    0.0000    0.0000    0.0000 C   0  0  3  0  0  0  0  0  0  0  0  0
    0.0000    1.5000    0.0000 C   0  0  0  0  0  0  0  0  0  0  0  0
   -1.4270    1.9640    0.0000 C   0  0  0  0  0  0  0  0  0  0  0  0
   -2.0370    3.3340    0.0000 C   0  0  0  0  0  0  0  0  0  0  0  0
   -3.5280    3.4910    0.0000 C   0  0  0  0  0  0  0  0  0  0  0  0
   -4.4100    2.2770    0.0000 C   0  0  0  0  0  0  0  0  0  0  0  0
   -3.8000    0.9070    0.0000 C   0  0  0  0  0  0  0  0  0  0  0  0
   -2.3080    0.7500    0.0000 C   0  0  0  0  0  0  0  0  0  0  0  0
   -1.4270   -0.4640    0.0000 N   0  0  3  0  0  0  0  0  0  0  0  0
   -1.8900   -1.8900    0.0000 N   0  0  0  0  0  0  0  0  0  0  0  0
   -0.8860   -3.0050    0.0000 C   0  0  0  0  0  0  0  0  0  0  0  0
    0.5810   -2.6930    0.0000 O   0  0  0  0  0  0  0  0  0  0  0  0
   -1.3500   -4.4310    0.0000 C   0  0  0  0  0  0  0  0  0  0  0  0
   -2.8170   -4.7430    0.0000 C   0  0  0  0  0  0  0  0  0  0  0  0
   -3.2810   -6.1700    0.0000 C   0  0  0  0  0  0  0  0  0  0  0  0
   -2.2770   -7.2850    0.0000 C   0  0  0  0  0  0  0  0  0  0  0  0
   -0.8100   -6.9730    0.0000 C   0  0  0  0  0  0  0  0  0  0  0  0
   -0.3460   -5.5460    0.0000 C   0  0  0  0  0  0  0  0  0  0  0  0
    0.1940   -8.0870    0.0000 S   0  0  0  0  0  0  0  0  0  0  0  0
   -0.2700   -9.5140    0.0000 O   0  0  0  0  0  0  0  0  0  0  0  0
    1.5180   -8.7920    0.0000 O   0  0  0  0  0  0  0  0  0  0  0  0
    1.1170   -6.9050    0.0000 N   0  0  0  0  0  0  0  0  0  0  0  0
   -2.7400   -8.7110    0.0000 Cl  0  0  0  0  0  0  0  0  0  0  0  0
  1  2  1  0  0  0  0
  2  3  1  0  0  0  0
  2 10  1  0  0  0  0
  3  4  1  0  0  0  0
  4  5  1  0  0  0  0
  4  9  2  0  0  0  0
  5  6  2  0  0  0  0
  6  7  1  0  0  0  0
  7  8  2  0  0  0  0
  8  9  1  0  0  0  0
  9 10  1  0  0  0  0
 10 11  1  0  0  0  0
 11 12  1  0  0  0  0
 12 13  2  0  0  0  0
 12 14  1  0  0  0  0
 14 15  1  0  0  0  0
 14 19  2  0  0  0  0
 15 16  2  0  0  0  0
 16 17  1  0  0  0  0
 17 18  2  0  0  0  0
 17 24  1  0  0  0  0
 18 19  1  0  0  0  0
 18 20  1  0  0  0  0
 20 21  2  0  0  0  0
 20 22  2  0  0  0  0
 20 23  1  0  0  0  0
M  END
>  <n>
402

>  <SMILES>
Clc1ccc(cc1S(=O)(=O)N)C(=O)NN1c2c(CC1C)cccc2

>  <IC50>
144.7

>  <Class>
0

>  <NAME>
INDAPAMIDE

>  <INCHI_KEY>
NDDAHWYSQHTHNT-UHFFFAOYSA-N

>  <Reference>
Mitigating the inhibition of human Bile Salt Export Pump by drugs_ opportunities provided by physicochemical property modulation,  in-silico modeling and structural modification_SI

$$$$
INDORAMIN
  MOE2013           2D

 26 29  0  0  0  0  0  0  0  0999 V2000
   12.4490   -5.8330    0.0000 C   0  0  0  0  0  0  0  0  0  0  0  0
   12.6060   -4.3410    0.0000 C   0  0  0  0  0  0  0  0  0  0  0  0
   11.3920   -3.4600    0.0000 C   0  0  0  0  0  0  0  0  0  0  0  0
   10.0220   -4.0700    0.0000 C   0  0  0  0  0  0  0  0  0  0  0  0
    9.8650   -5.5620    0.0000 C   0  0  0  0  0  0  0  0  0  0  0  0
   11.0780   -6.4430    0.0000 C   0  0  0  0  0  0  0  0  0  0  0  0
    8.8080   -3.1880    0.0000 C   0  0  0  0  0  0  0  0  0  0  0  0
    8.9650   -1.6960    0.0000 O   0  0  0  0  0  0  0  0  0  0  0  0
    7.4380   -3.7980    0.0000 N   0  0  0  0  0  0  0  0  0  0  0  0
    6.2240   -2.9170    0.0000 C   0  0  0  0  0  0  0  0  0  0  0  0
    6.3810   -1.4250    0.0000 C   0  0  0  0  0  0  0  0  0  0  0  0
    5.1680   -0.5430    0.0000 C   0  0  0  0  0  0  0  0  0  0  0  0
    3.7970   -1.1530    0.0000 N   0  0  0  0  0  0  0  0  0  0  0  0
    3.6410   -2.6450    0.0000 C   0  0  0  0  0  0  0  0  0  0  0  0
    4.8540   -3.5270    0.0000 C   0  0  0  0  0  0  0  0  0  0  0  0
    2.5840   -0.2720    0.0000 C   0  0  0  0  0  0  0  0  0  0  0  0
    1.2140   -0.8820    0.0000 C   0  0  0  0  0  0  0  0  0  0  0  0
    0.0000    0.0000    0.0000 C   0  0  0  0  0  0  0  0  0  0  0  0
    0.0000    1.5000    0.0000 C   0  0  0  0  0  0  0  0  0  0  0  0
   -1.4270    1.9640    0.0000 N   0  0  0  0  0  0  0  0  0  0  0  0
   -2.3080    0.7500    0.0000 C   0  0  0  0  0  0  0  0  0  0  0  0
   -1.4270   -0.4640    0.0000 C   0  0  0  0  0  0  0  0  0  0  0  0
   -2.0370   -1.8340    0.0000 C   0  0  0  0  0  0  0  0  0  0  0  0
   -3.5280   -1.9910    0.0000 C   0  0  0  0  0  0  0  0  0  0  0  0
   -4.4100   -0.7770    0.0000 C   0  0  0  0  0  0  0  0  0  0  0  0
   -3.8000    0.5930    0.0000 C   0  0  0  0  0  0  0  0  0  0  0  0
  1  2  1  0  0  0  0
  1  6  2  0  0  0  0
  2  3  2  0  0  0  0
  3  4  1  0  0  0  0
  4  5  2  0  0  0  0
  4  7  1  0  0  0  0
  5  6  1  0  0  0  0
  7  8  2  0  0  0  0
  7  9  1  0  0  0  0
  9 10  1  0  0  0  0
 10 11  1  0  0  0  0
 10 15  1  0  0  0  0
 11 12  1  0  0  0  0
 12 13  1  0  0  0  0
 13 14  1  0  0  0  0
 13 16  1  0  0  0  0
 14 15  1  0  0  0  0
 16 17  1  0  0  0  0
 17 18  1  0  0  0  0
 18 19  2  0  0  0  0
 18 22  1  0  0  0  0
 19 20  1  0  0  0  0
 20 21  1  0  0  0  0
 21 22  1  0  0  0  0
 21 26  2  0  0  0  0
 22 23  2  0  0  0  0
 23 24  1  0  0  0  0
 24 25  2  0  0  0  0
 25 26  1  0  0  0  0
M  END
>  <n>
404

>  <SMILES>
O=C(NC1CCN(CC1)CCc1c2c([nH]c1)cccc2)c1ccccc1

>  <IC50>
109

>  <Class>
0

>  <NAME>
INDORAMIN

>  <INCHI_KEY>
JXZZEXZZKAWDSP-UHFFFAOYSA-N

>  <Reference>
Mitigating the inhibition of human Bile Salt Export Pump by drugs_ opportunities provided by physicochemical property modulation,  in-silico modeling and structural modification_SI

$$$$
IODIPAMIDE_MEGLUMINE
  MOE2013           2D

 34 35  0  0  0  0  0  0  0  0999 V2000
    0.0000    0.0000    0.0000 C   0  0  0  0  0  0  0  0  0  0  0  0
    0.0000    1.5000    0.0000 C   0  0  0  0  0  0  0  0  0  0  0  0
   -1.2990    2.2500    0.0000 C   0  0  0  0  0  0  0  0  0  0  0  0
   -2.5980    1.5000    0.0000 C   0  0  0  0  0  0  0  0  0  0  0  0
   -2.5980    0.0000    0.0000 C   0  0  0  0  0  0  0  0  0  0  0  0
   -1.2990   -0.7500    0.0000 C   0  0  0  0  0  0  0  0  0  0  0  0
   -1.2990   -2.2500    0.0000 I   0  0  0  0  0  0  0  0  0  0  0  0
   -3.8970   -0.7500    0.0000 N   0  0  0  0  0  0  0  0  0  0  0  0
   -3.8970   -2.2500    0.0000 C   0  0  0  0  0  0  0  0  0  0  0  0
   -2.5980   -3.0000    0.0000 O   0  0  0  0  0  0  0  0  0  0  0  0
   -5.1960   -3.0000    0.0000 C   0  0  0  0  0  0  0  0  0  0  0  0
   -5.1960   -4.5000    0.0000 C   0  0  0  0  0  0  0  0  0  0  0  0
   -6.4950   -5.2500    0.0000 C   0  0  0  0  0  0  0  0  0  0  0  0
   -6.4950   -6.7500    0.0000 C   0  0  0  0  0  0  0  0  0  0  0  0
   -7.7940   -7.5000    0.0000 C   0  0  0  0  0  0  0  0  0  0  0  0
   -9.0930   -6.7500    0.0000 O   0  0  0  0  0  0  0  0  0  0  0  0
   -7.7940   -9.0000    0.0000 N   0  0  0  0  0  0  0  0  0  0  0  0
   -9.0930   -9.7500    0.0000 C   0  0  0  0  0  0  0  0  0  0  0  0
  -10.3920   -9.0000    0.0000 C   0  0  0  0  0  0  0  0  0  0  0  0
  -11.6910   -9.7500    0.0000 C   0  0  0  0  0  0  0  0  0  0  0  0
  -11.6910  -11.2500    0.0000 C   0  0  0  0  0  0  0  0  0  0  0  0
  -10.3920  -12.0000    0.0000 C   0  0  0  0  0  0  0  0  0  0  0  0
   -9.0930  -11.2500    0.0000 C   0  0  0  0  0  0  0  0  0  0  0  0
   -7.7940  -12.0000    0.0000 I   0  0  0  0  0  0  0  0  0  0  0  0
  -10.3920  -13.5000    0.0000 C   0  0  0  0  0  0  0  0  0  0  0  0
  -11.6910  -14.2500    0.0000 O   0  0  0  0  0  0  0  0  0  0  0  0
   -9.0930  -14.2500    0.0000 O   0  0  0  0  0  0  0  0  0  0  0  0
  -12.9900  -12.0000    0.0000 I   0  0  0  0  0  0  0  0  0  0  0  0
  -10.3920   -7.5000    0.0000 I   0  0  0  0  0  0  0  0  0  0  0  0
   -3.8970    2.2500    0.0000 I   0  0  0  0  0  0  0  0  0  0  0  0
   -1.2990    3.7500    0.0000 C   0  0  0  0  0  0  0  0  0  0  0  0
    0.0000    4.5000    0.0000 O   0  0  0  0  0  0  0  0  0  0  0  0
   -2.5980    4.5000    0.0000 O   0  0  0  0  0  0  0  0  0  0  0  0
    1.2990    2.2500    0.0000 I   0  0  0  0  0  0  0  0  0  0  0  0
  1  2  1  0  0  0  0
  1  6  2  0  0  0  0
  2  3  2  0  0  0  0
  2 34  1  0  0  0  0
  3  4  1  0  0  0  0
  3 31  1  0  0  0  0
  4  5  2  0  0  0  0
  4 30  1  0  0  0  0
  5  6  1  0  0  0  0
  5  8  1  0  0  0  0
  6  7  1  0  0  0  0
  8  9  1  0  0  0  0
  9 10  2  0  0  0  0
  9 11  1  0  0  0  0
 11 12  1  0  0  0  0
 12 13  1  0  0  0  0
 13 14  1  0  0  0  0
 14 15  1  0  0  0  0
 15 16  2  0  0  0  0
 15 17  1  0  0  0  0
 17 18  1  0  0  0  0
 18 19  1  0  0  0  0
 18 23  2  0  0  0  0
 19 20  2  0  0  0  0
 19 29  1  0  0  0  0
 20 21  1  0  0  0  0
 21 22  2  0  0  0  0
 21 28  1  0  0  0  0
 22 23  1  0  0  0  0
 22 25  1  0  0  0  0
 23 24  1  0  0  0  0
 25 26  2  0  0  0  0
 25 27  1  0  0  0  0
 31 32  2  0  0  0  0
 31 33  1  0  0  0  0
M  END
>  <n>
405

>  <SMILES>
Ic1c(C(O)=O)c(I)cc(I)c1NC(=O)CCCCC(=O)Nc1c(I)c(C(O)=O)c(I)cc1I

>  <IC50>
>969.9

>  <Class>
0

>  <NAME>
IODIPAMIDE MEGLUMINE

>  <INCHI_KEY>
FFINMCNLQNTKLU-UHFFFAOYSA-N

>  <Reference>
Mitigating the inhibition of human Bile Salt Export Pump by drugs_ opportunities provided by physicochemical property modulation,  in-silico modeling and structural modification_SI

$$$$
IPRONIAZID
  MOE2013           2D

 13 13  0  0  0  0  0  0  0  0999 V2000
    3.8970   -5.2500    0.0000 C   0  0  0  0  0  0  0  0  0  0  0  0
    2.5980   -4.5000    0.0000 C   0  0  0  0  0  0  0  0  0  0  0  0
    1.2990   -5.2500    0.0000 C   0  0  0  0  0  0  0  0  0  0  0  0
    2.5980   -3.0000    0.0000 N   0  0  0  0  0  0  0  0  0  0  0  0
    1.2990   -2.2500    0.0000 N   0  0  0  0  0  0  0  0  0  0  0  0
    1.2990   -0.7500    0.0000 C   0  0  0  0  0  0  0  0  0  0  0  0
    2.5980    0.0000    0.0000 O   0  0  0  0  0  0  0  0  0  0  0  0
    0.0000    0.0000    0.0000 C   0  0  0  0  0  0  0  0  0  0  0  0
    0.0000    1.5000    0.0000 C   0  0  0  0  0  0  0  0  0  0  0  0
   -1.2990    2.2500    0.0000 C   0  0  0  0  0  0  0  0  0  0  0  0
   -2.5980    1.5000    0.0000 N   0  0  0  0  0  0  0  0  0  0  0  0
   -2.5980    0.0000    0.0000 C   0  0  0  0  0  0  0  0  0  0  0  0
   -1.2990   -0.7500    0.0000 C   0  0  0  0  0  0  0  0  0  0  0  0
  1  2  1  0  0  0  0
  2  3  1  0  0  0  0
  2  4  1  0  0  0  0
  4  5  1  0  0  0  0
  5  6  1  0  0  0  0
  6  7  2  0  0  0  0
  6  8  1  0  0  0  0
  8  9  1  0  0  0  0
  8 13  2  0  0  0  0
  9 10  2  0  0  0  0
 10 11  1  0  0  0  0
 11 12  2  0  0  0  0
 12 13  1  0  0  0  0
M  END
>  <n>
406

>  <SMILES>
O=C(NNC(C)C)c1ccncc1

>  <IC50>
>952.6

>  <Class>
0

>  <NAME>
IPRONIAZID

>  <INCHI_KEY>
NYMGNSNKLVNMIA-UHFFFAOYSA-N

>  <Reference>
Mitigating, Dawson

$$$$
ISOETHARINE
  MOE2013           2D

 17 17  0  0  1  0  0  0  0  0999 V2000
    3.8970    2.2500    0.0000 C   0  0  0  0  0  0  0  0  0  0  0  0
    2.5980    1.5000    0.0000 C   0  0  0  0  0  0  0  0  0  0  0  0
    2.5980    0.0000    0.0000 C   0  0  3  0  0  0  0  0  0  0  0  0
    1.2990   -0.7500    0.0000 C   0  0  3  0  0  0  0  0  0  0  0  0
    0.0000    0.0000    0.0000 C   0  0  0  0  0  0  0  0  0  0  0  0
    0.0000    1.5000    0.0000 C   0  0  0  0  0  0  0  0  0  0  0  0
   -1.2990    2.2500    0.0000 C   0  0  0  0  0  0  0  0  0  0  0  0
   -2.5980    1.5000    0.0000 C   0  0  0  0  0  0  0  0  0  0  0  0
   -2.5980    0.0000    0.0000 C   0  0  0  0  0  0  0  0  0  0  0  0
   -1.2990   -0.7500    0.0000 C   0  0  0  0  0  0  0  0  0  0  0  0
   -3.8970   -0.7500    0.0000 O   0  0  0  0  0  0  0  0  0  0  0  0
   -3.8970    2.2500    0.0000 O   0  0  0  0  0  0  0  0  0  0  0  0
    1.2990   -2.2500    0.0000 O   0  0  0  0  0  0  0  0  0  0  0  0
    3.8970   -0.7500    0.0000 N   0  0  0  0  0  0  0  0  0  0  0  0
    5.1960    0.0000    0.0000 C   0  0  0  0  0  0  0  0  0  0  0  0
    6.4950   -0.7500    0.0000 C   0  0  0  0  0  0  0  0  0  0  0  0
    5.1960    1.5000    0.0000 C   0  0  0  0  0  0  0  0  0  0  0  0
  1  2  1  0  0  0  0
  2  3  1  0  0  0  0
  3  4  1  0  0  0  0
  3 14  1  0  0  0  0
  4  5  1  0  0  0  0
  4 13  1  0  0  0  0
  5  6  1  0  0  0  0
  5 10  2  0  0  0  0
  6  7  2  0  0  0  0
  7  8  1  0  0  0  0
  8  9  2  0  0  0  0
  8 12  1  0  0  0  0
  9 10  1  0  0  0  0
  9 11  1  0  0  0  0
 14 15  1  0  0  0  0
 15 16  1  0  0  0  0
 15 17  1  0  0  0  0
M  END
>  <n>
408

>  <SMILES>
Oc1cc(ccc1O)C(O)C(NC(C)C)CC

>  <IC50>
>1000

>  <Class>
0

>  <NAME>
ISOETHARINE

>  <INCHI_KEY>
HUYWAWARQUIQLE-UHFFFAOYSA-N

>  <Reference>
Mitigating the inhibition of human Bile Salt Export Pump by drugs_ opportunities provided by physicochemical property modulation,  in-silico modeling and structural modification_SI

$$$$
ISONIAZID
  MOE2013           2D

 10 10  0  0  0  0  0  0  0  0999 V2000
    0.0000    0.0000    0.0000 C   0  0  0  0  0  0  0  0  0  0  0  0
    0.0000    1.5000    0.0000 C   0  0  0  0  0  0  0  0  0  0  0  0
   -1.2990    2.2500    0.0000 N   0  0  0  0  0  0  0  0  0  0  0  0
   -2.5980    1.5000    0.0000 C   0  0  0  0  0  0  0  0  0  0  0  0
   -2.5980    0.0000    0.0000 C   0  0  0  0  0  0  0  0  0  0  0  0
   -1.2990   -0.7500    0.0000 C   0  0  0  0  0  0  0  0  0  0  0  0
   -1.2990   -2.2500    0.0000 C   0  0  0  0  0  0  0  0  0  0  0  0
   -2.5980   -3.0000    0.0000 O   0  0  0  0  0  0  0  0  0  0  0  0
    0.0000   -3.0000    0.0000 N   0  0  0  0  0  0  0  0  0  0  0  0
    0.0000   -4.5000    0.0000 N   0  0  0  0  0  0  0  0  0  0  0  0
  1  2  1  0  0  0  0
  1  6  2  0  0  0  0
  2  3  2  0  0  0  0
  3  4  1  0  0  0  0
  4  5  2  0  0  0  0
  5  6  1  0  0  0  0
  6  7  1  0  0  0  0
  7  8  2  0  0  0  0
  7  9  1  0  0  0  0
  9 10  1  0  0  0  0
M  END
>  <n>
409

>  <SMILES>
O=C(NN)c1ccncc1

>  <IC50>
>1000

>  <Class>
0

>  <NAME>
ISONIAZID

>  <INCHI_KEY>
QRXWMOHMRWLFEY-UHFFFAOYSA-N

>  <Reference>
Mitigating, Dawson

$$$$
ISOXSUPRINE
  MOE2013           2D

 22 23  0  0  1  0  0  0  0  0999 V2000
    1.2990   -5.2500    0.0000 C   0  0  0  0  0  0  0  0  0  0  0  0
    2.5980   -4.5000    0.0000 C   0  0  3  0  0  0  0  0  0  0  0  0
    3.8970   -5.2500    0.0000 C   0  0  0  0  0  0  0  0  0  0  0  0
    3.8970   -6.7500    0.0000 O   0  0  0  0  0  0  0  0  0  0  0  0
    5.1960   -7.5000    0.0000 C   0  0  0  0  0  0  0  0  0  0  0  0
    5.1960   -9.0000    0.0000 C   0  0  0  0  0  0  0  0  0  0  0  0
    6.4950   -9.7500    0.0000 C   0  0  0  0  0  0  0  0  0  0  0  0
    7.7940   -9.0000    0.0000 C   0  0  0  0  0  0  0  0  0  0  0  0
    7.7940   -7.5000    0.0000 C   0  0  0  0  0  0  0  0  0  0  0  0
    6.4950   -6.7500    0.0000 C   0  0  0  0  0  0  0  0  0  0  0  0
    2.5980   -3.0000    0.0000 N   0  0  0  0  0  0  0  0  0  0  0  0
    1.2990   -2.2500    0.0000 C   0  0  3  0  0  0  0  0  0  0  0  0
    0.0000   -3.0000    0.0000 C   0  0  0  0  0  0  0  0  0  0  0  0
    1.2990   -0.7500    0.0000 C   0  0  3  0  0  0  0  0  0  0  0  0
    0.0000    0.0000    0.0000 C   0  0  0  0  0  0  0  0  0  0  0  0
    0.0000    1.5000    0.0000 C   0  0  0  0  0  0  0  0  0  0  0  0
   -1.2990    2.2500    0.0000 C   0  0  0  0  0  0  0  0  0  0  0  0
   -2.5980    1.5000    0.0000 C   0  0  0  0  0  0  0  0  0  0  0  0
   -2.5980    0.0000    0.0000 C   0  0  0  0  0  0  0  0  0  0  0  0
   -1.2990   -0.7500    0.0000 C   0  0  0  0  0  0  0  0  0  0  0  0
   -3.8970    2.2500    0.0000 O   0  0  0  0  0  0  0  0  0  0  0  0
    2.5980    0.0000    0.0000 O   0  0  0  0  0  0  0  0  0  0  0  0
  1  2  1  0  0  0  0
  2  3  1  0  0  0  0
  2 11  1  0  0  0  0
  3  4  1  0  0  0  0
  4  5  1  0  0  0  0
  5  6  1  0  0  0  0
  5 10  2  0  0  0  0
  6  7  2  0  0  0  0
  7  8  1  0  0  0  0
  8  9  2  0  0  0  0
  9 10  1  0  0  0  0
 11 12  1  0  0  0  0
 12 13  1  0  0  0  0
 12 14  1  0  0  0  0
 14 15  1  0  0  0  0
 14 22  1  0  0  0  0
 15 16  1  0  0  0  0
 15 20  2  0  0  0  0
 16 17  2  0  0  0  0
 17 18  1  0  0  0  0
 18 19  2  0  0  0  0
 18 21  1  0  0  0  0
 19 20  1  0  0  0  0
M  END
>  <n>
411

>  <SMILES>
O(CC(NC(C(O)c1ccc(O)cc1)C)C)c1ccccc1

>  <IC50>
572.5

>  <Class>
0

>  <NAME>
ISOXSUPRINE

>  <INCHI_KEY>
BMUKKTUHUDJSNZ-UHFFFAOYSA-N

>  <Reference>
Mitigating the inhibition of human Bile Salt Export Pump by drugs_ opportunities provided by physicochemical property modulation,  in-silico modeling and structural modification_SI

$$$$
IVERMECTIN
  MOE2013           2D

 62 68  0  0  1  0  0  0  0  0999 V2000
    8.6430   -0.8240    0.0000 C   0  0  0  0  0  0  0  0  0  0  0  0
    7.6630    0.3120    0.0000 C   0  0  0  0  0  0  0  0  0  0  0  0
    6.1890    0.0310    0.0000 C   0  0  3  0  0  0  0  0  0  0  0  0
    5.6960   -1.3850    0.0000 C   0  0  0  0  0  0  0  0  0  0  0  0
    5.2090    1.1670    0.0000 C   0  0  3  0  0  0  0  0  0  0  0  0
    5.7030    2.5840    0.0000 C   0  0  3  0  0  0  0  0  0  0  0  0
    4.7230    3.7190    0.0000 C   0  0  0  0  0  0  0  0  0  0  0  0
    3.2500    3.4380    0.0000 C   0  0  0  0  0  0  0  0  0  0  0  0
    2.7560    2.0220    0.0000 C   0  0  1  0  0  0  0  0  0  0  0  0
    3.7360    0.8860    0.0000 O   0  0  0  0  0  0  0  0  0  0  0  0
    2.0830    0.4690    0.0000 C   0  0  0  0  0  0  0  0  0  0  0  0
    0.0000    0.0000    0.0000 C   0  0  3  0  0  0  0  0  0  0  0  0
    0.0000    1.5000    0.0000 C   0  0  0  0  0  0  0  0  0  0  0  0
   -0.5740    2.8860    0.0000 C   0  0  3  0  0  0  0  0  0  0  0  0
    1.5540    3.2130    0.0000 O   0  0  0  0  0  0  0  0  0  0  0  0
   -1.6350    3.9460    0.0000 C   0  0  0  0  0  0  0  0  0  0  0  0
   -3.0200    4.5200    0.0000 C   0  0  0  0  0  0  0  0  0  0  0  0
   -4.5200    4.5200    0.0000 C   0  0  0  0  0  0  0  0  0  0  0  0
   -5.9060    3.9460    0.0000 C   0  0  3  0  0  0  0  0  0  0  0  0
   -6.9670    2.8860    0.0000 C   0  0  3  0  0  0  0  0  0  0  0  0
   -7.5410    1.5000    0.0000 C   0  0  0  0  0  0  0  0  0  0  0  0
   -7.5410    0.0000    0.0000 C   0  0  0  0  0  0  0  0  0  0  0  0
   -6.9670   -1.3860    0.0000 C   0  0  0  0  0  0  0  0  0  0  0  0
   -5.9060   -2.4460    0.0000 C   0  0  0  0  0  0  0  0  0  0  0  0
   -6.8800   -3.5870    0.0000 C   0  0  0  0  0  0  0  0  0  0  0  0
   -6.0970   -4.8660    0.0000 O   0  0  0  0  0  0  0  0  0  0  0  0
   -4.6380   -4.5160    0.0000 C   0  0  3  0  0  0  0  0  0  0  0  0
   -4.5200   -3.0200    0.0000 C   0  0  2  0  0  0  0  0  0  0  0  0
   -3.1670   -2.3750    0.0000 C   0  0  3  0  0  0  0  0  0  0  0  0
   -1.9300   -3.2240    0.0000 C   0  0  0  0  0  0  0  0  0  0  0  0
   -2.0480   -4.7200    0.0000 C   0  0  0  0  0  0  0  0  0  0  0  0
   -3.4020   -5.3660    0.0000 C   0  0  3  0  0  0  0  0  0  0  0  0
   -3.5200   -6.8610    0.0000 O   0  0  0  0  0  0  0  0  0  0  0  0
   -0.8120   -5.5690    0.0000 C   0  0  0  0  0  0  0  0  0  0  0  0
   -1.6350   -2.4460    0.0000 C   0  0  0  0  0  0  0  0  0  0  0  0
   -1.0930   -3.8450    0.0000 O   0  0  0  0  0  0  0  0  0  0  0  0
   -0.5740   -1.3860    0.0000 O   0  0  0  0  0  0  0  0  0  0  0  0
   -5.8000   -3.8040    0.0000 O   0  0  0  0  0  0  0  0  0  0  0  0
   -8.2140    3.7190    0.0000 C   0  0  0  0  0  0  0  0  0  0  0  0
   -6.7400    5.1940    0.0000 O   0  0  0  0  0  0  0  0  0  0  0  0
   -8.2360    5.0960    0.0000 C   0  0  3  0  0  0  0  0  0  0  0  0
   -9.0700    6.3430    0.0000 C   0  0  0  0  0  0  0  0  0  0  0  0
  -10.5670    6.2450    0.0000 C   0  0  3  0  0  0  0  0  0  0  0  0
  -11.2300    4.8990    0.0000 C   0  0  3  0  0  0  0  0  0  0  0  0
  -10.3970    3.6520    0.0000 C   0  0  3  0  0  0  0  0  0  0  0  0
   -8.9000    3.7500    0.0000 O   0  0  0  0  0  0  0  0  0  0  0  0
  -11.0600    2.3070    0.0000 C   0  0  0  0  0  0  0  0  0  0  0  0
  -12.7270    4.8010    0.0000 O   0  0  0  0  0  0  0  0  0  0  0  0
  -13.5600    6.0480    0.0000 C   0  0  3  0  0  0  0  0  0  0  0  0
  -12.8970    7.3940    0.0000 C   0  0  0  0  0  0  0  0  0  0  0  0
  -13.7300    8.6410    0.0000 C   0  0  3  0  0  0  0  0  0  0  0  0
  -15.2270    8.5430    0.0000 C   0  0  3  0  0  0  0  0  0  0  0  0
  -15.8900    7.1980    0.0000 C   0  0  3  0  0  0  0  0  0  0  0  0
  -15.0570    5.9500    0.0000 O   0  0  0  0  0  0  0  0  0  0  0  0
  -17.3870    7.1000    0.0000 C   0  0  0  0  0  0  0  0  0  0  0  0
  -16.0600    9.7900    0.0000 O   0  0  0  0  0  0  0  0  0  0  0  0
  -13.0670    9.9860    0.0000 O   0  0  0  0  0  0  0  0  0  0  0  0
  -13.9000   11.2340    0.0000 C   0  0  0  0  0  0  0  0  0  0  0  0
  -11.4000    7.4920    0.0000 O   0  0  0  0  0  0  0  0  0  0  0  0
  -12.8970    7.3940    0.0000 C   0  0  0  0  0  0  0  0  0  0  0  0
   -4.8130    5.9920    0.0000 C   0  0  0  0  0  0  0  0  0  0  0  0
    7.1760    2.8640    0.0000 C   0  0  0  0  0  0  0  0  0  0  0  0
  1  2  1  0  0  0  0
  2  3  1  0  0  0  0
  3  4  1  0  0  0  0
  3  5  1  0  0  0  0
  5  6  1  0  0  0  0
  5 10  1  0  0  0  0
  6  7  1  0  0  0  0
  6 62  1  0  0  0  0
  7  8  1  0  0  0  0
  8  9  1  0  0  0  0
  9 10  1  0  0  0  0
  9 11  1  1  0  0  0
  9 15  1  6  0  0  0
 11 12  1  0  0  0  0
 12 13  1  0  0  0  0
 12 37  1  0  0  0  0
 13 14  1  0  0  0  0
 14 15  1  0  0  0  0
 14 16  1  0  0  0  0
 16 17  1  0  0  0  0
 17 18  2  0  0  0  0
 18 19  1  0  0  0  0
 18 61  1  0  0  0  0
 19 20  1  0  0  0  0
 19 40  1  0  0  0  0
 20 21  1  0  0  0  0
 20 39  1  0  0  0  0
 21 22  2  0  0  0  0
 22 23  1  0  0  0  0
 23 24  2  0  0  0  0
 24 25  1  0  0  0  0
 24 28  1  0  0  0  0
 25 26  1  0  0  0  0
 26 27  1  0  0  0  0
 27 28  1  0  0  0  0
 27 32  1  0  0  0  0
 28 29  1  0  0  0  0
 28 38  1  6  0  0  0
 29 30  1  0  0  0  0
 29 35  1  0  0  0  0
 30 31  2  0  0  0  0
 31 32  1  0  0  0  0
 31 34  1  0  0  0  0
 32 33  1  0  0  0  0
 35 36  2  0  0  0  0
 35 37  1  0  0  0  0
 40 41  1  0  0  0  0
 41 42  1  0  0  0  0
 41 46  1  0  0  0  0
 42 43  1  0  0  0  0
 43 44  1  0  0  0  0
 43 59  1  0  0  0  0
 44 45  1  0  0  0  0
 44 48  1  0  0  0  0
 45 46  1  0  0  0  0
 45 47  1  0  0  0  0
 48 49  1  0  0  0  0
 49 50  1  0  0  0  0
 49 54  1  0  0  0  0
 50 51  1  0  0  0  0
 51 52  1  0  0  0  0
 51 57  1  0  0  0  0
 52 53  1  0  0  0  0
 52 56  1  0  0  0  0
 53 54  1  0  0  0  0
 53 55  1  0  0  0  0
 57 58  1  0  0  0  0
 59 60  1  0  0  0  0
M  END
>  <n>
412

>  <SMILES>
O1[C@@H]2C[C@@]3(O[C@H]([C@H](CC)C)[C@H](CC3)C)O[C@H](C\C=C(/C)\[C@@H](O[C@@H]3O[C@@H](C)[C@H](O[C@@H]4O[C@@H](C)[C@H](O)[C@@H](OC)C4)[C@@H](OC)C3)[C@H](\C=C\C=C\3/CO[C@@H]4[C@H](O)C(=C[C@H]([C@]/34O)C1=O)C)C)C2

>  <IC50>
<10

>  <Class>
1

>  <NAME>
IVERMECTIN

>  <INCHI_KEY>
AZSNMRSAGSSBNP-XPNPUAGNSA-N

>  <Reference>
Mitigating the inhibition of human Bile Salt Export Pump by drugs_ opportunities provided by physicochemical property modulation,  in-silico modeling and structural modification_SI

$$$$
Ketoconazole
  MOE2013           2D

 36 40  0  0  1  0  0  0  0  0999 V2000
    2.5840   -0.2720    0.0000 C   0  0  3  0  0  0  0  0  0  0  0  0
    1.8340    1.0280    0.0000 C   0  0  0  0  0  0  0  0  0  0  0  0
    2.5840    2.3260    0.0000 C   0  0  0  0  0  0  0  0  0  0  0  0
    1.8340    3.6260    0.0000 C   0  0  0  0  0  0  0  0  0  0  0  0
    0.3340    3.6260    0.0000 C   0  0  0  0  0  0  0  0  0  0  0  0
   -0.4160    2.3260    0.0000 C   0  0  0  0  0  0  0  0  0  0  0  0
    0.3340    1.0280    0.0000 C   0  0  0  0  0  0  0  0  0  0  0  0
   -0.4160   -0.2720    0.0000 Cl  0  0  0  0  0  0  0  0  0  0  0  0
   -0.4160    4.9250    0.0000 Cl  0  0  0  0  0  0  0  0  0  0  0  0
    3.0470   -1.6980    0.0000 O   0  0  0  0  0  0  0  0  0  0  0  0
    4.5470   -1.6980    0.0000 C   0  0  3  0  0  0  0  0  0  0  0  0
    5.4290   -2.9120    0.0000 C   0  0  0  0  0  0  0  0  0  0  0  0
    6.9210   -2.7550    0.0000 O   0  0  0  0  0  0  0  0  0  0  0  0
    7.8020   -3.9680    0.0000 C   0  0  0  0  0  0  0  0  0  0  0  0
    7.1920   -5.3390    0.0000 C   0  0  0  0  0  0  0  0  0  0  0  0
    8.0740   -6.5520    0.0000 C   0  0  0  0  0  0  0  0  0  0  0  0
    9.5660   -6.3960    0.0000 C   0  0  0  0  0  0  0  0  0  0  0  0
   10.4480   -7.6090    0.0000 N   0  0  0  0  0  0  0  0  0  0  0  0
    9.8370   -8.9790    0.0000 C   0  0  0  0  0  0  0  0  0  0  0  0
   10.7190  -10.1930    0.0000 C   0  0  0  0  0  0  0  0  0  0  0  0
   12.2110  -10.0360    0.0000 N   0  0  0  0  0  0  0  0  0  0  0  0
   13.0930  -11.2500    0.0000 C   0  0  0  0  0  0  0  0  0  0  0  0
   14.5840  -11.0930    0.0000 C   0  0  0  0  0  0  0  0  0  0  0  0
   12.4820  -12.6200    0.0000 O   0  0  0  0  0  0  0  0  0  0  0  0
   12.8210   -8.6660    0.0000 C   0  0  0  0  0  0  0  0  0  0  0  0
   11.9390   -7.4520    0.0000 C   0  0  0  0  0  0  0  0  0  0  0  0
   10.1760   -5.0250    0.0000 C   0  0  0  0  0  0  0  0  0  0  0  0
    9.2940   -3.8120    0.0000 C   0  0  0  0  0  0  0  0  0  0  0  0
    5.0110   -0.2720    0.0000 C   0  0  0  0  0  0  0  0  0  0  0  0
    3.7970    0.6100    0.0000 O   0  0  0  0  0  0  0  0  0  0  0  0
    1.2140   -0.8820    0.0000 C   0  0  0  0  0  0  0  0  0  0  0  0
    0.0000    0.0000    0.0000 N   0  0  0  0  0  0  0  0  0  0  0  0
    0.0000    1.5000    0.0000 C   0  0  0  0  0  0  0  0  0  0  0  0
   -1.4270    1.9640    0.0000 C   0  0  0  0  0  0  0  0  0  0  0  0
   -2.3080    0.7500    0.0000 N   0  0  0  0  0  0  0  0  0  0  0  0
   -1.4270   -0.4640    0.0000 C   0  0  0  0  0  0  0  0  0  0  0  0
  1  2  1  0  0  0  0
  1 10  1  0  0  0  0
  1 30  1  0  0  0  0
  1 31  1  0  0  0  0
  2  3  1  0  0  0  0
  2  7  2  0  0  0  0
  3  4  2  0  0  0  0
  4  5  1  0  0  0  0
  5  6  2  0  0  0  0
  5  9  1  0  0  0  0
  6  7  1  0  0  0  0
  7  8  1  0  0  0  0
 10 11  1  0  0  0  0
 11 12  1  0  0  0  0
 11 29  1  0  0  0  0
 12 13  1  0  0  0  0
 13 14  1  0  0  0  0
 14 15  1  0  0  0  0
 14 28  2  0  0  0  0
 15 16  2  0  0  0  0
 16 17  1  0  0  0  0
 17 18  1  0  0  0  0
 17 27  2  0  0  0  0
 18 19  1  0  0  0  0
 18 26  1  0  0  0  0
 19 20  1  0  0  0  0
 20 21  1  0  0  0  0
 21 22  1  0  0  0  0
 21 25  1  0  0  0  0
 22 23  1  0  0  0  0
 22 24  2  0  0  0  0
 25 26  1  0  0  0  0
 27 28  1  0  0  0  0
 29 30  1  0  0  0  0
 31 32  1  0  0  0  0
 32 33  1  0  0  0  0
 32 36  1  0  0  0  0
 33 34  2  0  0  0  0
 34 35  1  0  0  0  0
 35 36  2  0  0  0  0
M  END
>  <n>
48

>  <IC50>
2.9

>  <Class>
1

>  <NAME>
KETOCONAZOLE

>  <INCHI_KEY>
XMAYWYJOQHXEEK-OZXSUGGESA-N

>  <Reference>
Mitigating, Dawson, Interference

$$$$
KETOTIFEN
  MOE2013           2D

 22 25  0  0  0  0  0  0  0  0999 V2000
    5.4060   -2.6030    0.0000 C   0  0  0  0  0  0  0  0  0  0  0  0
    4.0540   -1.9520    0.0000 N   0  0  0  0  0  0  0  0  0  0  0  0
    3.9420   -0.4570    0.0000 C   0  0  0  0  0  0  0  0  0  0  0  0
    2.5910    0.1940    0.0000 C   0  0  0  0  0  0  0  0  0  0  0  0
    1.3520   -0.6510    0.0000 C   0  0  0  0  0  0  0  0  0  0  0  0
    0.0000    0.0000    0.0000 C   0  0  0  0  0  0  0  0  0  0  0  0
    0.0000    1.5000    0.0000 C   0  0  0  0  0  0  0  0  0  0  0  0
    1.3960    2.0480    0.0000 C   0  0  0  0  0  0  0  0  0  0  0  0
    1.6200    3.5310    0.0000 C   0  0  0  0  0  0  0  0  0  0  0  0
    0.4470    4.4660    0.0000 C   0  0  0  0  0  0  0  0  0  0  0  0
   -0.9490    3.9180    0.0000 C   0  0  0  0  0  0  0  0  0  0  0  0
   -1.1730    2.4350    0.0000 C   0  0  0  0  0  0  0  0  0  0  0  0
   -2.6350    2.1020    0.0000 C   0  0  0  0  0  0  0  0  0  0  0  0
   -3.2860    0.7500    0.0000 C   0  0  0  0  0  0  0  0  0  0  0  0
   -4.7860    0.7500    0.0000 O   0  0  0  0  0  0  0  0  0  0  0  0
   -2.6350   -0.6020    0.0000 C   0  0  0  0  0  0  0  0  0  0  0  0
   -1.1730   -0.9350    0.0000 C   0  0  0  0  0  0  0  0  0  0  0  0
   -1.0380   -2.4290    0.0000 C   0  0  0  0  0  0  0  0  0  0  0  0
   -2.4180   -3.0190    0.0000 C   0  0  0  0  0  0  0  0  0  0  0  0
   -3.4040   -1.8890    0.0000 S   0  0  0  0  0  0  0  0  0  0  0  0
    1.4640   -2.1470    0.0000 C   0  0  0  0  0  0  0  0  0  0  0  0
    2.8150   -2.7980    0.0000 C   0  0  0  0  0  0  0  0  0  0  0  0
  1  2  1  0  0  0  0
  2  3  1  0  0  0  0
  2 22  1  0  0  0  0
  3  4  1  0  0  0  0
  4  5  1  0  0  0  0
  5  6  2  0  0  0  0
  5 21  1  0  0  0  0
  6  7  1  0  0  0  0
  6 17  1  0  0  0  0
  7  8  1  0  0  0  0
  7 12  2  0  0  0  0
  8  9  2  0  0  0  0
  9 10  1  0  0  0  0
 10 11  2  0  0  0  0
 11 12  1  0  0  0  0
 12 13  1  0  0  0  0
 13 14  1  0  0  0  0
 14 15  2  0  0  0  0
 14 16  1  0  0  0  0
 16 17  2  0  0  0  0
 16 20  1  0  0  0  0
 17 18  1  0  0  0  0
 18 19  2  0  0  0  0
 19 20  1  0  0  0  0
 21 22  1  0  0  0  0
M  END
>  <n>
414

>  <SMILES>
s1c2c(cc1)C(c1c(CC2=O)cccc1)=C1CCN(CC1)C

>  <IC50>
>428.6

>  <Class>
0

>  <NAME>
KETOTIFEN

>  <INCHI_KEY>
ZCVMWBYGMWKGHF-UHFFFAOYSA-N

>  <Reference>
Mitigating, Dawson

$$$$
LABETALOL
  MOE2013           2D

 24 25  0  0  1  0  0  0  0  0999 V2000
    5.1960    1.5000    0.0000 C   0  0  0  0  0  0  0  0  0  0  0  0
    5.1960    0.0000    0.0000 C   0  0  3  0  0  0  0  0  0  0  0  0
    6.4950   -0.7500    0.0000 C   0  0  0  0  0  0  0  0  0  0  0  0
    7.7940    0.0000    0.0000 C   0  0  0  0  0  0  0  0  0  0  0  0
    9.0930   -0.7500    0.0000 C   0  0  0  0  0  0  0  0  0  0  0  0
    9.0930   -2.2500    0.0000 C   0  0  0  0  0  0  0  0  0  0  0  0
   10.3920   -3.0000    0.0000 C   0  0  0  0  0  0  0  0  0  0  0  0
   11.6910   -2.2500    0.0000 C   0  0  0  0  0  0  0  0  0  0  0  0
   11.6910   -0.7500    0.0000 C   0  0  0  0  0  0  0  0  0  0  0  0
   10.3920    0.0000    0.0000 C   0  0  0  0  0  0  0  0  0  0  0  0
    3.8970   -0.7500    0.0000 N   0  0  0  0  0  0  0  0  0  0  0  0
    2.5980    0.0000    0.0000 C   0  0  0  0  0  0  0  0  0  0  0  0
    1.2990   -0.7500    0.0000 C   0  0  3  0  0  0  0  0  0  0  0  0
    0.0000    0.0000    0.0000 C   0  0  0  0  0  0  0  0  0  0  0  0
    0.0000    1.5000    0.0000 C   0  0  0  0  0  0  0  0  0  0  0  0
   -1.2990    2.2500    0.0000 C   0  0  0  0  0  0  0  0  0  0  0  0
   -2.5980    1.5000    0.0000 C   0  0  0  0  0  0  0  0  0  0  0  0
   -2.5980    0.0000    0.0000 C   0  0  0  0  0  0  0  0  0  0  0  0
   -1.2990   -0.7500    0.0000 C   0  0  0  0  0  0  0  0  0  0  0  0
   -3.8970   -0.7500    0.0000 C   0  0  0  0  0  0  0  0  0  0  0  0
   -5.1960    0.0000    0.0000 O   0  0  0  0  0  0  0  0  0  0  0  0
   -3.8970   -2.2500    0.0000 N   0  0  0  0  0  0  0  0  0  0  0  0
   -3.8970    2.2500    0.0000 O   0  0  0  0  0  0  0  0  0  0  0  0
    1.2990   -2.2500    0.0000 O   0  0  0  0  0  0  0  0  0  0  0  0
  1  2  1  0  0  0  0
  2  3  1  0  0  0  0
  2 11  1  0  0  0  0
  3  4  1  0  0  0  0
  4  5  1  0  0  0  0
  5  6  1  0  0  0  0
  5 10  2  0  0  0  0
  6  7  2  0  0  0  0
  7  8  1  0  0  0  0
  8  9  2  0  0  0  0
  9 10  1  0  0  0  0
 11 12  1  0  0  0  0
 12 13  1  0  0  0  0
 13 14  1  0  0  0  0
 13 24  1  0  0  0  0
 14 15  1  0  0  0  0
 14 19  2  0  0  0  0
 15 16  2  0  0  0  0
 16 17  1  0  0  0  0
 17 18  2  0  0  0  0
 17 23  1  0  0  0  0
 18 19  1  0  0  0  0
 18 20  1  0  0  0  0
 20 21  2  0  0  0  0
 20 22  1  0  0  0  0
M  END
>  <n>
416

>  <SMILES>
Oc1ccc(cc1C(=O)N)C(O)CNC(CCc1ccccc1)C

>  <IC50>
649.1

>  <Class>
0

>  <NAME>
LABETALOL

>  <INCHI_KEY>
SGUAFYQXFOLMHL-UHFFFAOYSA-N

>  <Reference>
Mitigating the inhibition of human Bile Salt Export Pump by drugs_ opportunities provided by physicochemical property modulation,  in-silico modeling and structural modification_SI

$$$$
LECOZOTAN
  MOE2013           2D

 36 40  0  0  1  0  0  0  0  0999 V2000
    5.1960   -4.5000    0.0000 C   0  0  0  0  0  0  0  0  0  0  0  0
    5.1960   -3.0000    0.0000 C   0  0  3  0  0  0  0  0  0  0  0  0
    6.4950   -2.2500    0.0000 C   0  0  0  0  0  0  0  0  0  0  0  0
    7.7940   -3.0000    0.0000 N   0  0  0  0  0  0  0  0  0  0  0  0
    7.7940   -4.5000    0.0000 C   0  0  0  0  0  0  0  0  0  0  0  0
    6.4950   -5.2500    0.0000 C   0  0  0  0  0  0  0  0  0  0  0  0
    6.4950   -6.7500    0.0000 C   0  0  0  0  0  0  0  0  0  0  0  0
    7.7940   -7.5000    0.0000 C   0  0  0  0  0  0  0  0  0  0  0  0
    9.0930   -6.7500    0.0000 C   0  0  0  0  0  0  0  0  0  0  0  0
    9.0930   -5.2500    0.0000 N   0  0  0  0  0  0  0  0  0  0  0  0
    9.0930   -2.2500    0.0000 C   0  0  0  0  0  0  0  0  0  0  0  0
    9.0930   -0.7500    0.0000 O   0  0  0  0  0  0  0  0  0  0  0  0
   10.3920   -3.0000    0.0000 C   0  0  0  0  0  0  0  0  0  0  0  0
   10.3920   -4.5000    0.0000 C   0  0  0  0  0  0  0  0  0  0  0  0
   11.6910   -5.2500    0.0000 C   0  0  0  0  0  0  0  0  0  0  0  0
   12.9900   -4.5000    0.0000 C   0  0  0  0  0  0  0  0  0  0  0  0
   12.9900   -3.0000    0.0000 C   0  0  0  0  0  0  0  0  0  0  0  0
   11.6910   -2.2500    0.0000 C   0  0  0  0  0  0  0  0  0  0  0  0
   14.2890   -5.2500    0.0000 C   0  0  0  0  0  0  0  0  0  0  0  0
   15.5880   -6.0000    0.0000 N   0  0  0  0  0  0  0  0  0  0  0  0
    3.8970   -2.2500    0.0000 N   0  0  0  0  0  0  0  0  0  0  0  0
    3.8970   -0.7500    0.0000 C   0  0  0  0  0  0  0  0  0  0  0  0
    2.5980    0.0000    0.0000 C   0  0  0  0  0  0  0  0  0  0  0  0
    1.2990   -0.7500    0.0000 N   0  0  0  0  0  0  0  0  0  0  0  0
    1.2990   -2.2500    0.0000 C   0  0  0  0  0  0  0  0  0  0  0  0
    2.5980   -3.0000    0.0000 C   0  0  0  0  0  0  0  0  0  0  0  0
    0.0000    0.0000    0.0000 C   0  0  0  0  0  0  0  0  0  0  0  0
    0.0000    1.5000    0.0000 C   0  0  0  0  0  0  0  0  0  0  0  0
   -1.2990    2.2500    0.0000 C   0  0  0  0  0  0  0  0  0  0  0  0
   -2.5980    1.5000    0.0000 C   0  0  0  0  0  0  0  0  0  0  0  0
   -2.5980    0.0000    0.0000 C   0  0  0  0  0  0  0  0  0  0  0  0
   -1.2990   -0.7500    0.0000 C   0  0  0  0  0  0  0  0  0  0  0  0
   -1.2990   -2.2500    0.0000 O   0  0  0  0  0  0  0  0  0  0  0  0
   -2.5980   -3.0000    0.0000 C   0  0  0  0  0  0  0  0  0  0  0  0
   -3.8970   -2.2500    0.0000 C   0  0  0  0  0  0  0  0  0  0  0  0
   -3.8970   -0.7500    0.0000 O   0  0  0  0  0  0  0  0  0  0  0  0
  1  2  1  0  0  0  0
  2  3  1  0  0  0  0
  2 21  1  0  0  0  0
  3  4  1  0  0  0  0
  4  5  1  0  0  0  0
  4 11  1  0  0  0  0
  5  6  1  0  0  0  0
  5 10  2  0  0  0  0
  6  7  2  0  0  0  0
  7  8  1  0  0  0  0
  8  9  2  0  0  0  0
  9 10  1  0  0  0  0
 11 12  2  0  0  0  0
 11 13  1  0  0  0  0
 13 14  1  0  0  0  0
 13 18  2  0  0  0  0
 14 15  2  0  0  0  0
 15 16  1  0  0  0  0
 16 17  2  0  0  0  0
 16 19  1  0  0  0  0
 17 18  1  0  0  0  0
 19 20  3  0  0  0  0
 21 22  1  0  0  0  0
 21 26  1  0  0  0  0
 22 23  1  0  0  0  0
 23 24  1  0  0  0  0
 24 25  1  0  0  0  0
 24 27  1  0  0  0  0
 25 26  1  0  0  0  0
 27 28  1  0  0  0  0
 27 32  2  0  0  0  0
 28 29  2  0  0  0  0
 29 30  1  0  0  0  0
 30 31  2  0  0  0  0
 31 32  1  0  0  0  0
 31 36  1  0  0  0  0
 32 33  1  0  0  0  0
 33 34  1  0  0  0  0
 34 35  1  0  0  0  0
 35 36  1  0  0  0  0
M  END
>  <n>
417

>  <SMILES>
O1c2c(OCC1)cccc2N1CCN(CC1)[C@@H](CN(C(=O)c1ccc(cc1)C#N)c1ncccc1)C

>  <IC50>
<10

>  <Class>
1

>  <NAME>
LECOZOTAN

>  <INCHI_KEY>
GXYZREDEYDFJPT-ZMBIFBSDSA-N

>  <Reference>
Mitigating the inhibition of human Bile Salt Export Pump by drugs_ opportunities provided by physicochemical property modulation,  in-silico modeling and structural modification_SI

$$$$
LEFLUNOMIDE
  MOE2013           2D

 19 20  0  0  0  0  0  0  0  0999 V2000
    1.2140   -0.8820    0.0000 C   0  0  0  0  0  0  0  0  0  0  0  0
    0.0000    0.0000    0.0000 C   0  0  0  0  0  0  0  0  0  0  0  0
    0.0000    1.5000    0.0000 C   0  0  0  0  0  0  0  0  0  0  0  0
   -1.4270    1.9640    0.0000 C   0  0  0  0  0  0  0  0  0  0  0  0
   -2.3080    0.7500    0.0000 N   0  0  0  0  0  0  0  0  0  0  0  0
   -1.4270   -0.4640    0.0000 O   0  0  0  0  0  0  0  0  0  0  0  0
    1.2140    2.3820    0.0000 C   0  0  0  0  0  0  0  0  0  0  0  0
    2.5840    1.7720    0.0000 O   0  0  0  0  0  0  0  0  0  0  0  0
    1.0570    3.8740    0.0000 N   0  0  0  0  0  0  0  0  0  0  0  0
    2.2700    4.7550    0.0000 C   0  0  0  0  0  0  0  0  0  0  0  0
    3.6410    4.1450    0.0000 C   0  0  0  0  0  0  0  0  0  0  0  0
    4.8540    5.0270    0.0000 C   0  0  0  0  0  0  0  0  0  0  0  0
    4.6970    6.5180    0.0000 C   0  0  0  0  0  0  0  0  0  0  0  0
    3.3270    7.1290    0.0000 C   0  0  0  0  0  0  0  0  0  0  0  0
    2.1140    6.2470    0.0000 C   0  0  0  0  0  0  0  0  0  0  0  0
    5.9110    7.4000    0.0000 C   0  0  0  0  0  0  0  0  0  0  0  0
    5.7540    8.8920    0.0000 F   0  0  0  0  0  0  0  0  0  0  0  0
    6.5680    6.0520    0.0000 F   0  0  0  0  0  0  0  0  0  0  0  0
    7.3530    7.8140    0.0000 F   0  0  0  0  0  0  0  0  0  0  0  0
  1  2  1  0  0  0  0
  2  3  2  0  0  0  0
  2  6  1  0  0  0  0
  3  4  1  0  0  0  0
  3  7  1  0  0  0  0
  4  5  2  0  0  0  0
  5  6  1  0  0  0  0
  7  8  2  0  0  0  0
  7  9  1  0  0  0  0
  9 10  1  0  0  0  0
 10 11  1  0  0  0  0
 10 15  2  0  0  0  0
 11 12  2  0  0  0  0
 12 13  1  0  0  0  0
 13 14  2  0  0  0  0
 13 16  1  0  0  0  0
 14 15  1  0  0  0  0
 16 17  1  0  0  0  0
 16 18  1  0  0  0  0
 16 19  1  0  0  0  0
M  END
>  <n>
418

>  <SMILES>
FC(F)(F)c1ccc(NC(=O)c2cnoc2C)cc1

>  <IC50>
110.4

>  <Class>
0

>  <NAME>
LEFLUNOMIDE

>  <INCHI_KEY>
VHOGYURTWQBHIL-UHFFFAOYSA-N

>  <Reference>
Mitigating, Dawson

$$$$
LEMAKALIM
  MOE2013           2D

 21 23  0  0  1  0  0  0  0  0999 V2000
   -0.9640   -4.1490    0.0000 C   0  0  0  0  0  0  0  0  0  0  0  0
    0.0000   -3.0000    0.0000 C   0  0  0  0  0  0  0  0  0  0  0  0
    1.2990   -2.2500    0.0000 C   0  0  3  0  0  0  0  0  0  0  0  0
    1.2990   -0.7500    0.0000 C   0  0  3  0  0  0  0  0  0  0  0  0
    0.0000    0.0000    0.0000 C   0  0  0  0  0  0  0  0  0  0  0  0
    0.0000    1.5000    0.0000 C   0  0  0  0  0  0  0  0  0  0  0  0
   -1.2990    2.2500    0.0000 C   0  0  0  0  0  0  0  0  0  0  0  0
   -2.5980    1.5000    0.0000 C   0  0  0  0  0  0  0  0  0  0  0  0
   -2.5980    0.0000    0.0000 C   0  0  0  0  0  0  0  0  0  0  0  0
   -1.2990   -0.7500    0.0000 C   0  0  0  0  0  0  0  0  0  0  0  0
   -1.2990   -2.2500    0.0000 O   0  0  0  0  0  0  0  0  0  0  0  0
   -1.2990    3.7500    0.0000 C   0  0  0  0  0  0  0  0  0  0  0  0
   -1.2990    5.2500    0.0000 N   0  0  0  0  0  0  0  0  0  0  0  0
    2.5980    0.0000    0.0000 N   0  0  0  0  0  0  0  0  0  0  0  0
    3.9680   -0.6100    0.0000 C   0  0  0  0  0  0  0  0  0  0  0  0
    4.9720    0.5050    0.0000 C   0  0  0  0  0  0  0  0  0  0  0  0
    4.2220    1.8040    0.0000 C   0  0  0  0  0  0  0  0  0  0  0  0
    2.7550    1.4920    0.0000 C   0  0  0  0  0  0  0  0  0  0  0  0
    1.6400    2.4960    0.0000 O   0  0  0  0  0  0  0  0  0  0  0  0
    2.5980   -3.0000    0.0000 O   0  0  0  0  0  0  0  0  0  0  0  0
    0.9640   -4.1490    0.0000 C   0  0  0  0  0  0  0  0  0  0  0  0
  1  2  1  0  0  0  0
  2  3  1  0  0  0  0
  2 11  1  0  0  0  0
  2 21  1  0  0  0  0
  3  4  1  0  0  0  0
  3 20  1  0  0  0  0
  4  5  1  0  0  0  0
  4 14  1  0  0  0  0
  5  6  1  0  0  0  0
  5 10  2  0  0  0  0
  6  7  2  0  0  0  0
  7  8  1  0  0  0  0
  7 12  1  0  0  0  0
  8  9  2  0  0  0  0
  9 10  1  0  0  0  0
 10 11  1  0  0  0  0
 12 13  3  0  0  0  0
 14 15  1  0  0  0  0
 14 18  1  0  0  0  0
 15 16  1  0  0  0  0
 16 17  1  0  0  0  0
 17 18  1  0  0  0  0
 18 19  2  0  0  0  0
M  END
>  <n>
419

>  <SMILES>
O1c2c(cc(cc2)C#N)[C@@H](N2CCCC2=O)[C@H](O)C1(C)C

>  <IC50>
353.3

>  <Class>
0

>  <NAME>
LEMAKALIM

>  <INCHI_KEY>
TVZCRIROJQEVOT-CABCVRRESA-N

>  <Reference>
Mitigating the inhibition of human Bile Salt Export Pump by drugs_ opportunities provided by physicochemical property modulation,  in-silico modeling and structural modification_SI

$$$$
LETROZOLE
  MOE2013           2D

 22 24  0  0  0  0  0  0  0  0999 V2000
    4.1110    1.8300    0.0000 C   0  0  0  0  0  0  0  0  0  0  0  0
    2.7410    1.2200    0.0000 C   0  0  0  0  0  0  0  0  0  0  0  0
    2.5840   -0.2720    0.0000 C   0  0  0  0  0  0  0  0  0  0  0  0
    3.7970   -1.1530    0.0000 C   0  0  0  0  0  0  0  0  0  0  0  0
    5.1680   -0.5430    0.0000 C   0  0  0  0  0  0  0  0  0  0  0  0
    5.3240    0.9490    0.0000 C   0  0  0  0  0  0  0  0  0  0  0  0
    6.6950    1.5590    0.0000 C   0  0  0  0  0  0  0  0  0  0  0  0
    8.0650    2.1690    0.0000 N   0  0  0  0  0  0  0  0  0  0  0  0
    1.2140   -0.8820    0.0000 C   0  0  0  0  0  0  0  0  0  0  0  0
    1.0570   -2.3740    0.0000 C   0  0  0  0  0  0  0  0  0  0  0  0
   -0.3140   -2.9840    0.0000 C   0  0  0  0  0  0  0  0  0  0  0  0
   -0.4700   -4.4750    0.0000 C   0  0  0  0  0  0  0  0  0  0  0  0
    0.7430   -5.3570    0.0000 C   0  0  0  0  0  0  0  0  0  0  0  0
    2.1140   -4.7470    0.0000 C   0  0  0  0  0  0  0  0  0  0  0  0
    2.2700   -3.2550    0.0000 C   0  0  0  0  0  0  0  0  0  0  0  0
    0.5860   -6.8490    0.0000 C   0  0  0  0  0  0  0  0  0  0  0  0
    0.4300   -8.3410    0.0000 N   0  0  0  0  0  0  0  0  0  0  0  0
    0.0000    0.0000    0.0000 N   0  0  0  0  0  0  0  0  0  0  0  0
    0.0000    1.5000    0.0000 C   0  0  0  0  0  0  0  0  0  0  0  0
   -1.4270    1.9640    0.0000 N   0  0  0  0  0  0  0  0  0  0  0  0
   -2.3080    0.7500    0.0000 C   0  0  0  0  0  0  0  0  0  0  0  0
   -1.4270   -0.4640    0.0000 N   0  0  0  0  0  0  0  0  0  0  0  0
  1  2  1  0  0  0  0
  1  6  2  0  0  0  0
  2  3  2  0  0  0  0
  3  4  1  0  0  0  0
  3  9  1  0  0  0  0
  4  5  2  0  0  0  0
  5  6  1  0  0  0  0
  6  7  1  0  0  0  0
  7  8  3  0  0  0  0
  9 10  1  0  0  0  0
  9 18  1  0  0  0  0
 10 11  1  0  0  0  0
 10 15  2  0  0  0  0
 11 12  2  0  0  0  0
 12 13  1  0  0  0  0
 13 14  2  0  0  0  0
 13 16  1  0  0  0  0
 14 15  1  0  0  0  0
 16 17  3  0  0  0  0
 18 19  1  0  0  0  0
 18 22  1  0  0  0  0
 19 20  2  0  0  0  0
 20 21  1  0  0  0  0
 21 22  2  0  0  0  0
M  END
>  <n>
420

>  <SMILES>
n1cn(nc1)C(c1ccc(cc1)C#N)c1ccc(cc1)C#N

>  <IC50>
225.2

>  <Class>
0

>  <NAME>
LETROZOLE

>  <INCHI_KEY>
HPJKCIUCZWXJDR-UHFFFAOYSA-N

>  <Reference>
Mitigating the inhibition of human Bile Salt Export Pump by drugs_ opportunities provided by physicochemical property modulation,  in-silico modeling and structural modification_SI

$$$$
LEVAMISOLE
  MOE2013           2D

 14 16  0  0  1  0  0  0  0  0999 V2000
    3.6410   -2.6450    0.0000 C   0  0  0  0  0  0  0  0  0  0  0  0
    3.7970   -1.1530    0.0000 C   0  0  0  0  0  0  0  0  0  0  0  0
    2.5840   -0.2720    0.0000 C   0  0  0  0  0  0  0  0  0  0  0  0
    1.2140   -0.8820    0.0000 C   0  0  0  0  0  0  0  0  0  0  0  0
    1.0570   -2.3740    0.0000 C   0  0  0  0  0  0  0  0  0  0  0  0
    2.2700   -3.2550    0.0000 C   0  0  0  0  0  0  0  0  0  0  0  0
    0.0000    0.0000    0.0000 C   0  0  3  0  0  0  0  0  0  0  0  0
    0.0000    1.5000    0.0000 C   0  0  0  0  0  0  0  0  0  0  0  0
   -1.4270    1.9640    0.0000 N   0  0  0  0  0  0  0  0  0  0  0  0
   -2.3080    3.1770    0.0000 C   0  0  0  0  0  0  0  0  0  0  0  0
   -3.7350    2.7140    0.0000 C   0  0  0  0  0  0  0  0  0  0  0  0
   -3.7350    1.2140    0.0000 S   0  0  0  0  0  0  0  0  0  0  0  0
   -2.3080    0.7500    0.0000 C   0  0  0  0  0  0  0  0  0  0  0  0
   -1.4270   -0.4640    0.0000 N   0  0  0  0  0  0  0  0  0  0  0  0
  1  2  1  0  0  0  0
  1  6  2  0  0  0  0
  2  3  2  0  0  0  0
  3  4  1  0  0  0  0
  4  5  2  0  0  0  0
  4  7  1  0  0  0  0
  5  6  1  0  0  0  0
  7  8  1  0  0  0  0
  7 14  1  0  0  0  0
  8  9  1  0  0  0  0
  9 10  1  0  0  0  0
  9 13  1  0  0  0  0
 10 11  1  0  0  0  0
 11 12  1  0  0  0  0
 12 13  1  0  0  0  0
 13 14  2  0  0  0  0
M  END
>  <n>
421

>  <SMILES>
S1CCN2C[C@@H](N=C12)c1ccccc1

>  <IC50>
>1000

>  <Class>
0

>  <NAME>
LEVAMISOLE

>  <INCHI_KEY>
HLFSDGLLUJUHTE-SNVBAGLBSA-N

>  <Reference>
Mitigating the inhibition of human Bile Salt Export Pump by drugs_ opportunities provided by physicochemical property modulation,  in-silico modeling and structural modification_SI

$$$$
LEVETIRACETAM
  MOE2013           2D

 12 12  0  0  1  0  0  0  0  0999 V2000
    2.2700   -3.2550    0.0000 C   0  0  0  0  0  0  0  0  0  0  0  0
    1.0570   -2.3740    0.0000 C   0  0  0  0  0  0  0  0  0  0  0  0
    1.2140   -0.8820    0.0000 C   0  0  3  0  0  0  0  0  0  0  0  0
    2.5840   -0.2720    0.0000 C   0  0  0  0  0  0  0  0  0  0  0  0
    3.7970   -1.1530    0.0000 O   0  0  0  0  0  0  0  0  0  0  0  0
    2.7410    1.2200    0.0000 N   0  0  0  0  0  0  0  0  0  0  0  0
    0.0000    0.0000    0.0000 N   0  0  0  0  0  0  0  0  0  0  0  0
    0.0000    1.5000    0.0000 C   0  0  0  0  0  0  0  0  0  0  0  0
   -1.4270    1.9640    0.0000 C   0  0  0  0  0  0  0  0  0  0  0  0
   -2.3080    0.7500    0.0000 C   0  0  0  0  0  0  0  0  0  0  0  0
   -1.4270   -0.4640    0.0000 C   0  0  0  0  0  0  0  0  0  0  0  0
   -1.8900   -1.8900    0.0000 O   0  0  0  0  0  0  0  0  0  0  0  0
  1  2  1  0  0  0  0
  2  3  1  0  0  0  0
  3  4  1  0  0  0  0
  3  7  1  0  0  0  0
  4  5  2  0  0  0  0
  4  6  1  0  0  0  0
  7  8  1  0  0  0  0
  7 11  1  0  0  0  0
  8  9  1  0  0  0  0
  9 10  1  0  0  0  0
 10 11  1  0  0  0  0
 11 12  2  0  0  0  0
M  END
>  <n>
422

>  <SMILES>
O=C1N(CCC1)[C@@H](CC)C(=O)N

>  <IC50>
>1000

>  <Class>
0

>  <NAME>
LEVETIRACETAM

>  <INCHI_KEY>
HPHUVLMMVZITSG-LURJTMIESA-N

>  <Reference>
Mitigating the inhibition of human Bile Salt Export Pump by drugs_ opportunities provided by physicochemical property modulation,  in-silico modeling and structural modification_SI

$$$$
LEVOFLOXACIN
  MOE2013           2D

 26 29  0  0  1  0  0  0  0  0999 V2000
    3.8970    2.2500    0.0000 C   0  0  0  0  0  0  0  0  0  0  0  0
    2.5980    1.5000    0.0000 C   0  0  3  0  0  0  0  0  0  0  0  0
    2.5980    0.0000    0.0000 C   0  0  0  0  0  0  0  0  0  0  0  0
    1.2990   -0.7500    0.0000 O   0  0  0  0  0  0  0  0  0  0  0  0
    0.0000    0.0000    0.0000 C   0  0  0  0  0  0  0  0  0  0  0  0
    0.0000    1.5000    0.0000 C   0  0  0  0  0  0  0  0  0  0  0  0
    1.2990    2.2500    0.0000 N   0  0  3  0  0  0  0  0  0  0  0  0
    1.2990    3.7500    0.0000 C   0  0  0  0  0  0  0  0  0  0  0  0
    0.0000    4.5000    0.0000 C   0  0  0  0  0  0  0  0  0  0  0  0
   -1.2990    3.7500    0.0000 C   0  0  0  0  0  0  0  0  0  0  0  0
   -2.5980    4.5000    0.0000 O   0  0  0  0  0  0  0  0  0  0  0  0
   -1.2990    2.2500    0.0000 C   0  0  0  0  0  0  0  0  0  0  0  0
   -2.5980    1.5000    0.0000 C   0  0  0  0  0  0  0  0  0  0  0  0
   -2.5980    0.0000    0.0000 C   0  0  0  0  0  0  0  0  0  0  0  0
   -1.2990   -0.7500    0.0000 C   0  0  0  0  0  0  0  0  0  0  0  0
   -1.2990   -2.2500    0.0000 N   0  0  0  0  0  0  0  0  0  0  0  0
   -2.5980   -3.0000    0.0000 C   0  0  0  0  0  0  0  0  0  0  0  0
   -2.5980   -4.5000    0.0000 C   0  0  0  0  0  0  0  0  0  0  0  0
   -1.2990   -5.2500    0.0000 N   0  0  0  0  0  0  0  0  0  0  0  0
    0.0000   -4.5000    0.0000 C   0  0  0  0  0  0  0  0  0  0  0  0
    0.0000   -3.0000    0.0000 C   0  0  0  0  0  0  0  0  0  0  0  0
   -1.2990   -6.7500    0.0000 C   0  0  0  0  0  0  0  0  0  0  0  0
   -3.8970   -0.7500    0.0000 F   0  0  0  0  0  0  0  0  0  0  0  0
    0.0000    6.0000    0.0000 C   0  0  0  0  0  0  0  0  0  0  0  0
    1.2990    6.7500    0.0000 O   0  0  0  0  0  0  0  0  0  0  0  0
   -1.2990    6.7500    0.0000 O   0  0  0  0  0  0  0  0  0  0  0  0
  1  2  1  0  0  0  0
  2  3  1  0  0  0  0
  2  7  1  0  0  0  0
  3  4  1  0  0  0  0
  4  5  1  0  0  0  0
  5  6  1  0  0  0  0
  5 15  2  0  0  0  0
  6  7  1  0  0  0  0
  6 12  2  0  0  0  0
  7  8  1  0  0  0  0
  8  9  2  0  0  0  0
  9 10  1  0  0  0  0
  9 24  1  0  0  0  0
 10 11  2  0  0  0  0
 10 12  1  0  0  0  0
 12 13  1  0  0  0  0
 13 14  2  0  0  0  0
 14 15  1  0  0  0  0
 14 23  1  0  0  0  0
 15 16  1  0  0  0  0
 16 17  1  0  0  0  0
 16 21  1  0  0  0  0
 17 18  1  0  0  0  0
 18 19  1  0  0  0  0
 19 20  1  0  0  0  0
 19 22  1  0  0  0  0
 20 21  1  0  0  0  0
 24 25  2  0  0  0  0
 24 26  1  0  0  0  0
M  END
>  <n>
423

>  <SMILES>
Fc1cc2c3N(C=C(C(O)=O)C2=O)[C@H](COc3c1N1CCN(CC1)C)C

>  <IC50>
>1000

>  <Class>
0

>  <NAME>
LEVOFLOXACIN

>  <INCHI_KEY>
GSDSWSVVBLHKDQ-JTQLQIEISA-N

>  <Reference>
Mitigating, Dawson

$$$$
LIGUSTRAZINE
  MOE2013           2D

 10 10  0  0  0  0  0  0  0  0999 V2000
    1.2990   -0.7500    0.0000 C   0  0  0  0  0  0  0  0  0  0  0  0
    0.0000    0.0000    0.0000 C   0  0  0  0  0  0  0  0  0  0  0  0
    0.0000    1.5000    0.0000 C   0  0  0  0  0  0  0  0  0  0  0  0
   -1.2990    2.2500    0.0000 N   0  0  0  0  0  0  0  0  0  0  0  0
   -2.5980    1.5000    0.0000 C   0  0  0  0  0  0  0  0  0  0  0  0
   -2.5980    0.0000    0.0000 C   0  0  0  0  0  0  0  0  0  0  0  0
   -1.2990   -0.7500    0.0000 N   0  0  0  0  0  0  0  0  0  0  0  0
   -3.8970   -0.7500    0.0000 C   0  0  0  0  0  0  0  0  0  0  0  0
   -3.8970    2.2500    0.0000 C   0  0  0  0  0  0  0  0  0  0  0  0
    1.2990    2.2500    0.0000 C   0  0  0  0  0  0  0  0  0  0  0  0
  1  2  1  0  0  0  0
  2  3  1  0  0  0  0
  2  7  2  0  0  0  0
  3  4  2  0  0  0  0
  3 10  1  0  0  0  0
  4  5  1  0  0  0  0
  5  6  2  0  0  0  0
  5  9  1  0  0  0  0
  6  7  1  0  0  0  0
  6  8  1  0  0  0  0
M  END
>  <n>
424

>  <SMILES>
n1c(C)c(nc(C)c1C)C

>  <IC50>
>1000

>  <Class>
0

>  <NAME>
LIGUSTRAZINE

>  <INCHI_KEY>
FINHMKGKINIASC-UHFFFAOYSA-N

>  <Reference>
Mitigating the inhibition of human Bile Salt Export Pump by drugs_ opportunities provided by physicochemical property modulation,  in-silico modeling and structural modification_SI

$$$$
LIPOIC_ACID
  MOE2013           2D

 12 12  0  0  1  0  0  0  0  0999 V2000
    0.0000    0.0000    0.0000 C   0  0  0  0  0  0  0  0  0  0  0  0
    0.0000    1.5000    0.0000 C   0  0  0  0  0  0  0  0  0  0  0  0
   -1.4270    1.9640    0.0000 S   0  0  0  0  0  0  0  0  0  0  0  0
   -2.3080    0.7500    0.0000 S   0  0  0  0  0  0  0  0  0  0  0  0
   -1.4270   -0.4640    0.0000 C   0  0  3  0  0  0  0  0  0  0  0  0
   -1.8900   -1.8900    0.0000 C   0  0  0  0  0  0  0  0  0  0  0  0
   -3.3570   -2.2020    0.0000 C   0  0  0  0  0  0  0  0  0  0  0  0
   -3.8210   -3.6290    0.0000 C   0  0  0  0  0  0  0  0  0  0  0  0
   -5.2880   -3.9400    0.0000 C   0  0  0  0  0  0  0  0  0  0  0  0
   -5.7520   -5.3670    0.0000 C   0  0  0  0  0  0  0  0  0  0  0  0
   -7.2190   -5.6790    0.0000 O   0  0  0  0  0  0  0  0  0  0  0  0
   -4.7480   -6.4820    0.0000 O   0  0  0  0  0  0  0  0  0  0  0  0
  1  2  1  0  0  0  0
  1  5  1  0  0  0  0
  2  3  1  0  0  0  0
  3  4  1  0  0  0  0
  4  5  1  0  0  0  0
  5  6  1  0  0  0  0
  6  7  1  0  0  0  0
  7  8  1  0  0  0  0
  8  9  1  0  0  0  0
  9 10  1  0  0  0  0
 10 11  2  0  0  0  0
 10 12  1  0  0  0  0
M  END
>  <n>
426

>  <SMILES>
S1SCCC1CCCCC(O)=O

>  <IC50>
>1000

>  <Class>
0

>  <NAME>
LIPOIC ACID

>  <INCHI_KEY>
AGBQKNBQESQNJD-UHFFFAOYSA-N

>  <Reference>
Mitigating the inhibition of human Bile Salt Export Pump by drugs_ opportunities provided by physicochemical property modulation,  in-silico modeling and structural modification_SI

$$$$
LOSARTAN
  MOE2013           2D

 30 33  0  0  0  0  0  0  0  0999 V2000
    5.1680   -0.5430    0.0000 C   0  0  0  0  0  0  0  0  0  0  0  0
    3.7970   -1.1530    0.0000 C   0  0  0  0  0  0  0  0  0  0  0  0
    2.5840   -0.2720    0.0000 C   0  0  0  0  0  0  0  0  0  0  0  0
    1.2140   -0.8820    0.0000 C   0  0  0  0  0  0  0  0  0  0  0  0
    0.0000    0.0000    0.0000 C   0  0  0  0  0  0  0  0  0  0  0  0
    0.0000    1.5000    0.0000 N   0  0  0  0  0  0  0  0  0  0  0  0
   -1.4270    1.9640    0.0000 C   0  0  0  0  0  0  0  0  0  0  0  0
   -2.3080    0.7500    0.0000 C   0  0  0  0  0  0  0  0  0  0  0  0
   -1.4270   -0.4640    0.0000 N   0  0  0  0  0  0  0  0  0  0  0  0
   -1.8900   -1.8900    0.0000 C   0  0  0  0  0  0  0  0  0  0  0  0
   -3.3570   -2.2020    0.0000 C   0  0  0  0  0  0  0  0  0  0  0  0
   -4.3610   -1.0870    0.0000 C   0  0  0  0  0  0  0  0  0  0  0  0
   -5.8280   -1.3990    0.0000 C   0  0  0  0  0  0  0  0  0  0  0  0
   -6.2920   -2.8260    0.0000 C   0  0  0  0  0  0  0  0  0  0  0  0
   -5.2880   -3.9400    0.0000 C   0  0  0  0  0  0  0  0  0  0  0  0
   -3.8210   -3.6290    0.0000 C   0  0  0  0  0  0  0  0  0  0  0  0
   -7.7590   -3.1380    0.0000 C   0  0  0  0  0  0  0  0  0  0  0  0
   -8.7630   -2.0230    0.0000 C   0  0  0  0  0  0  0  0  0  0  0  0
  -10.2300   -2.3350    0.0000 C   0  0  0  0  0  0  0  0  0  0  0  0
  -10.6930   -3.7610    0.0000 C   0  0  0  0  0  0  0  0  0  0  0  0
   -9.6900   -4.8760    0.0000 C   0  0  0  0  0  0  0  0  0  0  0  0
   -8.2220   -4.5640    0.0000 C   0  0  0  0  0  0  0  0  0  0  0  0
   -7.2190   -5.6790    0.0000 C   0  0  0  0  0  0  0  0  0  0  0  0
   -7.5310   -7.1460    0.0000 N   0  0  0  0  0  0  0  0  0  0  0  0
   -6.2320   -7.8960    0.0000 N   0  0  0  0  0  0  0  0  0  0  0  0
   -5.1170   -6.8920    0.0000 N   0  0  0  0  0  0  0  0  0  0  0  0
   -5.7270   -5.5220    0.0000 N   0  0  0  0  0  0  0  0  0  0  0  0
   -3.8080    0.7500    0.0000 C   0  0  0  0  0  0  0  0  0  0  0  0
   -4.5580    2.0490    0.0000 O   0  0  0  0  0  0  0  0  0  0  0  0
   -1.8900    3.3900    0.0000 Cl  0  0  0  0  0  0  0  0  0  0  0  0
  1  2  1  0  0  0  0
  2  3  1  0  0  0  0
  3  4  1  0  0  0  0
  4  5  1  0  0  0  0
  5  6  2  0  0  0  0
  5  9  1  0  0  0  0
  6  7  1  0  0  0  0
  7  8  2  0  0  0  0
  7 30  1  0  0  0  0
  8  9  1  0  0  0  0
  8 28  1  0  0  0  0
  9 10  1  0  0  0  0
 10 11  1  0  0  0  0
 11 12  1  0  0  0  0
 11 16  2  0  0  0  0
 12 13  2  0  0  0  0
 13 14  1  0  0  0  0
 14 15  2  0  0  0  0
 14 17  1  0  0  0  0
 15 16  1  0  0  0  0
 17 18  1  0  0  0  0
 17 22  2  0  0  0  0
 18 19  2  0  0  0  0
 19 20  1  0  0  0  0
 20 21  2  0  0  0  0
 21 22  1  0  0  0  0
 22 23  1  0  0  0  0
 23 24  1  0  0  0  0
 23 27  2  0  0  0  0
 24 25  1  0  0  0  0
 25 26  2  0  0  0  0
 26 27  1  0  0  0  0
 28 29  1  0  0  0  0
M  END
>  <n>
428

>  <SMILES>
Clc1nc(n(Cc2ccc(cc2)-c2ccccc2-c2[nH]nnn2)c1CO)CCCC

>  <IC50>
<10

>  <Class>
1

>  <NAME>
LOSARTAN

>  <INCHI_KEY>
PSIFNNKUMBGKDQ-UHFFFAOYSA-N

>  <Reference>
Mitigating the inhibition of human Bile Salt Export Pump by drugs_ opportunities provided by physicochemical property modulation,  in-silico modeling and structural modification_SI

$$$$
MEGESTROL_ACETATE
  MOE2013           2D

 28 31  0  0  1  0  0  0  0  0999 V2000
    3.8970   -0.7500    0.0000 C   0  0  0  0  0  0  0  0  0  0  0  0
    2.5980    0.0000    0.0000 C   0  0  0  0  0  0  0  0  0  0  0  0
    1.2990   -0.7500    0.0000 C   0  0  0  0  0  0  0  0  0  0  0  0
    0.0000    0.0000    0.0000 C   0  0  3  0  0  0  0  0  0  0  0  0
    0.0000    1.5000    0.0000 C   0  0  3  0  0  0  0  0  0  0  0  0
   -1.2990    2.2500    0.0000 C   0  0  0  0  0  0  0  0  0  0  0  0
   -2.5980    1.5000    0.0000 C   0  0  0  0  0  0  0  0  0  0  0  0
   -2.5980    0.0000    0.0000 C   0  0  1  0  0  0  0  0  0  0  0  0
   -1.2990   -0.7500    0.0000 C   0  0  3  0  0  0  0  0  0  0  0  0
   -1.6110   -2.2170    0.0000 C   0  0  0  0  0  0  0  0  0  0  0  0
   -3.1030   -2.3740    0.0000 C   0  0  0  0  0  0  0  0  0  0  0  0
   -3.7130   -1.0040    0.0000 C   0  0  2  0  0  0  0  0  0  0  0  0
   -4.5940    0.2100    0.0000 C   0  0  0  0  0  0  0  0  0  0  0  0
   -6.0860    0.0530    0.0000 O   0  0  0  0  0  0  0  0  0  0  0  0
   -3.9840    1.5800    0.0000 C   0  0  0  0  0  0  0  0  0  0  0  0
   -5.0120   -1.7540    0.0000 O   0  0  0  0  0  0  0  0  0  0  0  0
   -5.0120   -3.2540    0.0000 C   0  0  0  0  0  0  0  0  0  0  0  0
   -6.3110   -4.0040    0.0000 O   0  0  0  0  0  0  0  0  0  0  0  0
   -3.7130   -4.0040    0.0000 C   0  0  0  0  0  0  0  0  0  0  0  0
   -3.9680    0.6100    0.0000 C   0  0  0  0  0  0  0  0  0  0  0  0
    1.2990    2.2500    0.0000 C   0  0  2  0  0  0  0  0  0  0  0  0
    2.5980    1.5000    0.0000 C   0  0  0  0  0  0  0  0  0  0  0  0
    3.8970    2.2500    0.0000 C   0  0  0  0  0  0  0  0  0  0  0  0
    3.8970    3.7500    0.0000 C   0  0  0  0  0  0  0  0  0  0  0  0
    5.1960    4.5000    0.0000 O   0  0  0  0  0  0  0  0  0  0  0  0
    2.5980    4.5000    0.0000 C   0  0  0  0  0  0  0  0  0  0  0  0
    1.2990    3.7500    0.0000 C   0  0  0  0  0  0  0  0  0  0  0  0
    0.0000    3.0000    0.0000 C   0  0  0  0  0  0  0  0  0  0  0  0
  1  2  1  0  0  0  0
  2  3  2  0  0  0  0
  2 22  1  0  0  0  0
  3  4  1  0  0  0  0
  4  5  1  0  0  0  0
  4  9  1  0  0  0  0
  5  6  1  0  0  0  0
  5 21  1  0  0  0  0
  6  7  1  0  0  0  0
  7  8  1  0  0  0  0
  8  9  1  0  0  0  0
  8 12  1  0  0  0  0
  8 20  1  6  0  0  0
  9 10  1  0  0  0  0
 10 11  1  0  0  0  0
 11 12  1  0  0  0  0
 12 13  1  6  0  0  0
 12 16  1  1  0  0  0
 13 14  2  0  0  0  0
 13 15  1  0  0  0  0
 16 17  1  0  0  0  0
 17 18  2  0  0  0  0
 17 19  1  0  0  0  0
 21 22  1  0  0  0  0
 21 27  1  0  0  0  0
 21 28  1  6  0  0  0
 22 23  2  0  0  0  0
 23 24  1  0  0  0  0
 24 25  2  0  0  0  0
 24 26  1  0  0  0  0
 26 27  1  0  0  0  0
M  END
>  <n>
431

>  <SMILES>
O=C1CC[C@@]2([C@@H]3[C@H]([C@@H]4CC[C@](OC(=O)C)(C(=O)C)[C@]4(CC3)C)C=C(C2=C1)C)C

>  <IC50>
<10

>  <Class>
1

>  <NAME>
MEGESTROL ACETATE

>  <INCHI_KEY>
RQZAXGRLVPAYTJ-GQFGMJRRSA-N

>  <Reference>
Mitigating the inhibition of human Bile Salt Export Pump by drugs_ opportunities provided by physicochemical property modulation,  in-silico modeling and structural modification_SI

$$$$
MELPHALAN
  MOE2013           2D

 19 19  0  0  1  0  0  0  0  0999 V2000
    0.0000    0.0000    0.0000 C   0  0  0  0  0  0  0  0  0  0  0  0
    0.0000    1.5000    0.0000 C   0  0  0  0  0  0  0  0  0  0  0  0
   -1.2990    2.2500    0.0000 C   0  0  0  0  0  0  0  0  0  0  0  0
   -2.5980    1.5000    0.0000 C   0  0  0  0  0  0  0  0  0  0  0  0
   -2.5980    0.0000    0.0000 C   0  0  0  0  0  0  0  0  0  0  0  0
   -1.2990   -0.7500    0.0000 C   0  0  0  0  0  0  0  0  0  0  0  0
   -1.2990   -2.2500    0.0000 C   0  0  0  0  0  0  0  0  0  0  0  0
    0.0000   -3.0000    0.0000 C   0  0  3  0  0  0  0  0  0  0  0  0
    0.0000   -4.5000    0.0000 C   0  0  0  0  0  0  0  0  0  0  0  0
    1.2990   -5.2500    0.0000 O   0  0  0  0  0  0  0  0  0  0  0  0
   -1.2990   -5.2500    0.0000 O   0  0  0  0  0  0  0  0  0  0  0  0
    1.2990   -2.2500    0.0000 N   0  0  0  0  0  0  0  0  0  0  0  0
   -1.2990    3.7500    0.0000 N   0  0  0  0  0  0  0  0  0  0  0  0
   -2.5980    4.5000    0.0000 C   0  0  0  0  0  0  0  0  0  0  0  0
   -2.5980    6.0000    0.0000 C   0  0  0  0  0  0  0  0  0  0  0  0
   -3.8970    6.7500    0.0000 Cl  0  0  0  0  0  0  0  0  0  0  0  0
    0.0000    4.5000    0.0000 C   0  0  0  0  0  0  0  0  0  0  0  0
    0.0000    6.0000    0.0000 C   0  0  0  0  0  0  0  0  0  0  0  0
    1.2990    6.7500    0.0000 Cl  0  0  0  0  0  0  0  0  0  0  0  0
  1  2  1  0  0  0  0
  1  6  2  0  0  0  0
  2  3  2  0  0  0  0
  3  4  1  0  0  0  0
  3 13  1  0  0  0  0
  4  5  2  0  0  0  0
  5  6  1  0  0  0  0
  6  7  1  0  0  0  0
  7  8  1  0  0  0  0
  8  9  1  0  0  0  0
  8 12  1  0  0  0  0
  9 10  2  0  0  0  0
  9 11  1  0  0  0  0
 13 14  1  0  0  0  0
 13 17  1  0  0  0  0
 14 15  1  0  0  0  0
 15 16  1  0  0  0  0
 17 18  1  0  0  0  0
 18 19  1  0  0  0  0
M  END
>  <n>
432

>  <SMILES>
ClCCN(CCCl)c1ccc(cc1)CC(N)C(O)=O

>  <IC50>
93.75

>  <Class>
0

>  <NAME>
MELPHALAN

>  <INCHI_KEY>
SGDBTWWWUNNDEQ-UHFFFAOYSA-N

>  <Reference>
Mitigating the inhibition of human Bile Salt Export Pump by drugs_ opportunities provided by physicochemical property modulation,  in-silico modeling and structural modification_SI

$$$$
MEMANTINE
  MOE2013           2D

 13 15  0  0  1  0  0  0  0  0999 V2000
   -2.4510   -0.5480    0.0000 C   0  0  0  0  0  0  0  0  0  0  0  0
   -1.0020   -0.1600    0.0000 C   0  0  3  0  0  0  0  0  0  0  0  0
   -0.5890   -0.8740    0.0000 C   0  0  0  0  0  0  0  0  0  0  0  0
    0.2090   -0.6650    0.0000 C   0  0  0  0  0  0  0  0  0  0  0  0
    1.0020   -0.8740    0.0000 C   0  0  0  0  0  0  0  0  0  0  0  0
    0.5900   -0.1600    0.0000 C   0  0  3  0  0  0  0  0  0  0  0  0
   -0.2090   -0.3690    0.0000 C   0  0  0  0  0  0  0  0  0  0  0  0
    0.5900    0.6650    0.0000 C   0  0  0  0  0  0  0  0  0  0  0  0
   -0.2040    0.8740    0.0000 C   0  0  0  0  0  0  0  0  0  0  0  0
    0.2090    0.1600    0.0000 C   0  0  0  0  0  0  0  0  0  0  0  0
   -1.0020    0.6650    0.0000 C   0  0  0  0  0  0  0  0  0  0  0  0
   -0.2030    2.3740    0.0000 N   0  0  0  0  0  0  0  0  0  0  0  0
    2.0380    0.2280    0.0000 C   0  0  0  0  0  0  0  0  0  0  0  0
  1  2  1  0  0  0  0
  2  3  1  0  0  0  0
  2  7  1  0  0  0  0
  2 11  1  0  0  0  0
  3  4  1  0  0  0  0
  4  5  1  0  0  0  0
  4 10  1  0  0  0  0
  5  6  1  0  0  0  0
  6  7  1  0  0  0  0
  6  8  1  0  0  0  0
  6 13  1  0  0  0  0
  8  9  1  0  0  0  0
  9 10  1  0  0  0  0
  9 11  1  0  0  0  0
  9 12  1  0  0  0  0
M  END
>  <n>
433

>  <SMILES>
NC12CC3(CC(C1)(CC(C3)C2)C)C

>  <IC50>
>1000

>  <Class>
0

>  <NAME>
MEMANTINE

>  <INCHI_KEY>
BUGYDGFZZOZRHP-UHFFFAOYSA-N

>  <Reference>
Mitigating the inhibition of human Bile Salt Export Pump by drugs_ opportunities provided by physicochemical property modulation,  in-silico modeling and structural modification_SI

$$$$
MEPENZOLATE_BROMIDE
  MOE2013           2D

 25 27  0  0  1  0  0  0  0  0999 V2000
   -0.1780   -6.4900    0.0000 C   0  0  0  0  0  0  0  0  0  0  0  0
    1.2990   -6.7500    0.0000 N   0  3  0  0  0  0  0  0  0  0  0  0
    2.5980   -7.5000    0.0000 C   0  0  0  0  0  0  0  0  0  0  0  0
    3.8970   -6.7500    0.0000 C   0  0  0  0  0  0  0  0  0  0  0  0
    3.8970   -5.2500    0.0000 C   0  0  0  0  0  0  0  0  0  0  0  0
    2.5980   -4.5000    0.0000 C   0  0  3  0  0  0  0  0  0  0  0  0
    1.2990   -5.2500    0.0000 C   0  0  0  0  0  0  0  0  0  0  0  0
    2.5980   -3.0000    0.0000 O   0  0  0  0  0  0  0  0  0  0  0  0
    1.2990   -2.2500    0.0000 C   0  0  0  0  0  0  0  0  0  0  0  0
    0.0000   -3.0000    0.0000 O   0  0  0  0  0  0  0  0  0  0  0  0
    1.2990   -0.7500    0.0000 C   0  0  0  0  0  0  0  0  0  0  0  0
    2.7760   -1.0100    0.0000 C   0  0  0  0  0  0  0  0  0  0  0  0
    3.2890   -2.4200    0.0000 C   0  0  0  0  0  0  0  0  0  0  0  0
    4.7660   -2.6800    0.0000 C   0  0  0  0  0  0  0  0  0  0  0  0
    5.7310   -1.5310    0.0000 C   0  0  0  0  0  0  0  0  0  0  0  0
    5.2180   -0.1220    0.0000 C   0  0  0  0  0  0  0  0  0  0  0  0
    3.7400    0.1390    0.0000 C   0  0  0  0  0  0  0  0  0  0  0  0
    0.0000    0.0000    0.0000 C   0  0  0  0  0  0  0  0  0  0  0  0
    0.0000    1.5000    0.0000 C   0  0  0  0  0  0  0  0  0  0  0  0
   -1.2990    2.2500    0.0000 C   0  0  0  0  0  0  0  0  0  0  0  0
   -2.5980    1.5000    0.0000 C   0  0  0  0  0  0  0  0  0  0  0  0
   -2.5980    0.0000    0.0000 C   0  0  0  0  0  0  0  0  0  0  0  0
   -1.2990   -0.7500    0.0000 C   0  0  0  0  0  0  0  0  0  0  0  0
    1.8120    0.6600    0.0000 O   0  0  0  0  0  0  0  0  0  0  0  0
    0.7860   -8.1590    0.0000 C   0  0  0  0  0  0  0  0  0  0  0  0
  1  2  1  0  0  0  0
  2  3  1  0  0  0  0
  2  7  1  0  0  0  0
  2 25  1  0  0  0  0
  3  4  1  0  0  0  0
  4  5  1  0  0  0  0
  5  6  1  0  0  0  0
  6  7  1  0  0  0  0
  6  8  1  0  0  0  0
  8  9  1  0  0  0  0
  9 10  2  0  0  0  0
  9 11  1  0  0  0  0
 11 12  1  0  0  0  0
 11 18  1  0  0  0  0
 11 24  1  0  0  0  0
 12 13  1  0  0  0  0
 12 17  2  0  0  0  0
 13 14  2  0  0  0  0
 14 15  1  0  0  0  0
 15 16  2  0  0  0  0
 16 17  1  0  0  0  0
 18 19  1  0  0  0  0
 18 23  2  0  0  0  0
 19 20  2  0  0  0  0
 20 21  1  0  0  0  0
 21 22  2  0  0  0  0
 22 23  1  0  0  0  0
M  CHG  1   2   1
M  END
>  <n>
434

>  <SMILES>
O(C(=O)C(O)(c1ccccc1)c1ccccc1)C1CCC[N+](C1)(C)C

>  <IC50>
>1000

>  <Class>
0

>  <NAME>
MEPENZOLATE BROMIDE

>  <INCHI_KEY>
GKNPSSNBBWDAGH-UHFFFAOYSA-N

>  <Reference>
Mitigating the inhibition of human Bile Salt Export Pump by drugs_ opportunities provided by physicochemical property modulation,  in-silico modeling and structural modification_SI

$$$$
MEPHENESIN
  MOE2013           2D

 13 13  0  0  1  0  0  0  0  0999 V2000
    1.2990   -0.7500    0.0000 C   0  0  0  0  0  0  0  0  0  0  0  0
    0.0000    0.0000    0.0000 C   0  0  0  0  0  0  0  0  0  0  0  0
    0.0000    1.5000    0.0000 C   0  0  0  0  0  0  0  0  0  0  0  0
   -1.2990    2.2500    0.0000 C   0  0  0  0  0  0  0  0  0  0  0  0
   -2.5980    1.5000    0.0000 C   0  0  0  0  0  0  0  0  0  0  0  0
   -2.5980    0.0000    0.0000 C   0  0  0  0  0  0  0  0  0  0  0  0
   -1.2990   -0.7500    0.0000 C   0  0  0  0  0  0  0  0  0  0  0  0
   -1.2990   -2.2500    0.0000 O   0  0  0  0  0  0  0  0  0  0  0  0
   -2.5980   -3.0000    0.0000 C   0  0  0  0  0  0  0  0  0  0  0  0
   -2.5980   -4.5000    0.0000 C   0  0  3  0  0  0  0  0  0  0  0  0
   -3.8970   -5.2500    0.0000 C   0  0  0  0  0  0  0  0  0  0  0  0
   -3.8970   -6.7500    0.0000 O   0  0  0  0  0  0  0  0  0  0  0  0
   -1.2990   -5.2500    0.0000 O   0  0  0  0  0  0  0  0  0  0  0  0
  1  2  1  0  0  0  0
  2  3  1  0  0  0  0
  2  7  2  0  0  0  0
  3  4  2  0  0  0  0
  4  5  1  0  0  0  0
  5  6  2  0  0  0  0
  6  7  1  0  0  0  0
  7  8  1  0  0  0  0
  8  9  1  0  0  0  0
  9 10  1  0  0  0  0
 10 11  1  0  0  0  0
 10 13  1  0  0  0  0
 11 12  1  0  0  0  0
M  END
>  <n>
435

>  <SMILES>
O(CC(O)CO)c1ccccc1C

>  <IC50>
>1000

>  <Class>
0

>  <NAME>
MEPHENESIN

>  <INCHI_KEY>
JWDYCNIAQWPBHD-UHFFFAOYSA-N

>  <Reference>
Mitigating the inhibition of human Bile Salt Export Pump by drugs_ opportunities provided by physicochemical property modulation,  in-silico modeling and structural modification_SI

$$$$
MEPHENYTOIN
  MOE2013           2D

 16 17  0  0  1  0  0  0  0  0999 V2000
    1.7380   -1.9310    0.0000 C   0  0  0  0  0  0  0  0  0  0  0  0
    0.3120   -1.4670    0.0000 C   0  0  0  0  0  0  0  0  0  0  0  0
    0.0000    0.0000    0.0000 C   0  0  3  0  0  0  0  0  0  0  0  0
    0.0000    1.5000    0.0000 C   0  0  0  0  0  0  0  0  0  0  0  0
    1.2140    2.3820    0.0000 O   0  0  0  0  0  0  0  0  0  0  0  0
   -1.4270    1.9640    0.0000 N   0  0  0  0  0  0  0  0  0  0  0  0
   -2.3080    0.7500    0.0000 C   0  0  0  0  0  0  0  0  0  0  0  0
   -3.8080    0.7500    0.0000 O   0  0  0  0  0  0  0  0  0  0  0  0
   -1.4270   -0.4640    0.0000 N   0  0  0  0  0  0  0  0  0  0  0  0
   -1.8900    3.3900    0.0000 C   0  0  0  0  0  0  0  0  0  0  0  0
    1.4920    0.1570    0.0000 C   0  0  0  0  0  0  0  0  0  0  0  0
    2.3740   -1.0570    0.0000 C   0  0  0  0  0  0  0  0  0  0  0  0
    3.8650   -0.9000    0.0000 C   0  0  0  0  0  0  0  0  0  0  0  0
    4.4750    0.4700    0.0000 C   0  0  0  0  0  0  0  0  0  0  0  0
    3.5940    1.6840    0.0000 C   0  0  0  0  0  0  0  0  0  0  0  0
    2.1020    1.5270    0.0000 C   0  0  0  0  0  0  0  0  0  0  0  0
  1  2  1  0  0  0  0
  2  3  1  0  0  0  0
  3  4  1  0  0  0  0
  3  9  1  0  0  0  0
  3 11  1  0  0  0  0
  4  5  2  0  0  0  0
  4  6  1  0  0  0  0
  6  7  1  0  0  0  0
  6 10  1  0  0  0  0
  7  8  2  0  0  0  0
  7  9  1  0  0  0  0
 11 12  1  0  0  0  0
 11 16  2  0  0  0  0
 12 13  2  0  0  0  0
 13 14  1  0  0  0  0
 14 15  2  0  0  0  0
 15 16  1  0  0  0  0
M  END
>  <n>
436

>  <SMILES>
O=C1N(C)C(=O)NC1(CC)c1ccccc1

>  <IC50>
>1000

>  <Class>
0

>  <NAME>
MEPHENYTOIN

>  <INCHI_KEY>
GMHKMTDVRCWUDX-UHFFFAOYSA-N

>  <Reference>
Mitigating the inhibition of human Bile Salt Export Pump by drugs_ opportunities provided by physicochemical property modulation,  in-silico modeling and structural modification_SI

$$$$
MEPRYLCAINE
  MOE2013           2D

 17 17  0  0  0  0  0  0  0  0999 V2000
    5.1960   -9.0000    0.0000 C   0  0  0  0  0  0  0  0  0  0  0  0
    5.1960   -7.5000    0.0000 C   0  0  0  0  0  0  0  0  0  0  0  0
    3.8970   -6.7500    0.0000 C   0  0  0  0  0  0  0  0  0  0  0  0
    3.8970   -5.2500    0.0000 N   0  0  0  0  0  0  0  0  0  0  0  0
    2.5980   -4.5000    0.0000 C   0  0  0  0  0  0  0  0  0  0  0  0
    1.1210   -4.2400    0.0000 C   0  0  0  0  0  0  0  0  0  0  0  0
    2.0850   -5.9100    0.0000 C   0  0  0  0  0  0  0  0  0  0  0  0
    2.5980   -3.0000    0.0000 C   0  0  0  0  0  0  0  0  0  0  0  0
    1.2990   -2.2500    0.0000 O   0  0  0  0  0  0  0  0  0  0  0  0
    1.2990   -0.7500    0.0000 C   0  0  0  0  0  0  0  0  0  0  0  0
    2.5980    0.0000    0.0000 O   0  0  0  0  0  0  0  0  0  0  0  0
    0.0000    0.0000    0.0000 C   0  0  0  0  0  0  0  0  0  0  0  0
    0.0000    1.5000    0.0000 C   0  0  0  0  0  0  0  0  0  0  0  0
   -1.2990    2.2500    0.0000 C   0  0  0  0  0  0  0  0  0  0  0  0
   -2.5980    1.5000    0.0000 C   0  0  0  0  0  0  0  0  0  0  0  0
   -2.5980    0.0000    0.0000 C   0  0  0  0  0  0  0  0  0  0  0  0
   -1.2990   -0.7500    0.0000 C   0  0  0  0  0  0  0  0  0  0  0  0
  1  2  1  0  0  0  0
  2  3  1  0  0  0  0
  3  4  1  0  0  0  0
  4  5  1  0  0  0  0
  5  6  1  0  0  0  0
  5  7  1  0  0  0  0
  5  8  1  0  0  0  0
  8  9  1  0  0  0  0
  9 10  1  0  0  0  0
 10 11  2  0  0  0  0
 10 12  1  0  0  0  0
 12 13  1  0  0  0  0
 12 17  2  0  0  0  0
 13 14  2  0  0  0  0
 14 15  1  0  0  0  0
 15 16  2  0  0  0  0
 16 17  1  0  0  0  0
M  END
>  <n>
438

>  <SMILES>
O(C(=O)c1ccccc1)CC(NCCC)(C)C

>  <IC50>
>1000

>  <Class>
0

>  <NAME>
MEPRYLCAINE

>  <INCHI_KEY>
VXJABHHJLXLNMP-UHFFFAOYSA-N

>  <Reference>
Mitigating the inhibition of human Bile Salt Export Pump by drugs_ opportunities provided by physicochemical property modulation,  in-silico modeling and structural modification_SI

$$$$
MEPYRAMINE
  MOE2013           2D

 21 22  0  0  1  0  0  0  0  0999 V2000
    3.8970   -6.7500    0.0000 C   0  0  0  0  0  0  0  0  0  0  0  0
    3.8970   -5.2500    0.0000 N   0  0  0  0  0  0  0  0  0  0  0  0
    5.1960   -4.5000    0.0000 C   0  0  0  0  0  0  0  0  0  0  0  0
    2.5980   -4.5000    0.0000 C   0  0  0  0  0  0  0  0  0  0  0  0
    2.5980   -3.0000    0.0000 C   0  0  0  0  0  0  0  0  0  0  0  0
    1.2990   -2.2500    0.0000 N   0  0  3  0  0  0  0  0  0  0  0  0
    1.2990   -0.7500    0.0000 C   0  0  0  0  0  0  0  0  0  0  0  0
    0.0000    0.0000    0.0000 C   0  0  0  0  0  0  0  0  0  0  0  0
    0.0000    1.5000    0.0000 C   0  0  0  0  0  0  0  0  0  0  0  0
   -1.2990    2.2500    0.0000 C   0  0  0  0  0  0  0  0  0  0  0  0
   -2.5980    1.5000    0.0000 C   0  0  0  0  0  0  0  0  0  0  0  0
   -2.5980    0.0000    0.0000 C   0  0  0  0  0  0  0  0  0  0  0  0
   -1.2990   -0.7500    0.0000 C   0  0  0  0  0  0  0  0  0  0  0  0
   -3.8970    2.2500    0.0000 O   0  0  0  0  0  0  0  0  0  0  0  0
   -3.8970    3.7500    0.0000 C   0  0  0  0  0  0  0  0  0  0  0  0
    0.0000   -3.0000    0.0000 C   0  0  0  0  0  0  0  0  0  0  0  0
   -1.2990   -2.2500    0.0000 C   0  0  0  0  0  0  0  0  0  0  0  0
   -2.5980   -3.0000    0.0000 C   0  0  0  0  0  0  0  0  0  0  0  0
   -2.5980   -4.5000    0.0000 C   0  0  0  0  0  0  0  0  0  0  0  0
   -1.2990   -5.2500    0.0000 C   0  0  0  0  0  0  0  0  0  0  0  0
    0.0000   -4.5000    0.0000 N   0  0  0  0  0  0  0  0  0  0  0  0
  1  2  1  0  0  0  0
  2  3  1  0  0  0  0
  2  4  1  0  0  0  0
  4  5  1  0  0  0  0
  5  6  1  0  0  0  0
  6  7  1  0  0  0  0
  6 16  1  0  0  0  0
  7  8  1  0  0  0  0
  8  9  1  0  0  0  0
  8 13  2  0  0  0  0
  9 10  2  0  0  0  0
 10 11  1  0  0  0  0
 11 12  2  0  0  0  0
 11 14  1  0  0  0  0
 12 13  1  0  0  0  0
 14 15  1  0  0  0  0
 16 17  1  0  0  0  0
 16 21  2  0  0  0  0
 17 18  2  0  0  0  0
 18 19  1  0  0  0  0
 19 20  2  0  0  0  0
 20 21  1  0  0  0  0
M  END
>  <n>
439

>  <SMILES>
O(C)c1ccc(cc1)CN(CCN(C)C)c1ncccc1

>  <IC50>
>1000

>  <Class>
0

>  <NAME>
MEPYRAMINE

>  <INCHI_KEY>
YECBIJXISLIIDS-UHFFFAOYSA-N

>  <Reference>
Mitigating the inhibition of human Bile Salt Export Pump by drugs_ opportunities provided by physicochemical property modulation,  in-silico modeling and structural modification_SI

$$$$
MESALAZINE
  MOE2013           2D

 11 11  0  0  0  0  0  0  0  0999 V2000
    0.0000    0.0000    0.0000 C   0  0  0  0  0  0  0  0  0  0  0  0
    0.0000    1.5000    0.0000 C   0  0  0  0  0  0  0  0  0  0  0  0
   -1.2990    2.2500    0.0000 C   0  0  0  0  0  0  0  0  0  0  0  0
   -2.5980    1.5000    0.0000 C   0  0  0  0  0  0  0  0  0  0  0  0
   -2.5980    0.0000    0.0000 C   0  0  0  0  0  0  0  0  0  0  0  0
   -1.2990   -0.7500    0.0000 C   0  0  0  0  0  0  0  0  0  0  0  0
   -1.2990   -2.2500    0.0000 N   0  0  0  0  0  0  0  0  0  0  0  0
   -3.8970    2.2500    0.0000 C   0  0  0  0  0  0  0  0  0  0  0  0
   -5.1960    1.5000    0.0000 O   0  0  0  0  0  0  0  0  0  0  0  0
   -3.8970    3.7500    0.0000 O   0  0  0  0  0  0  0  0  0  0  0  0
   -1.2990    3.7500    0.0000 O   0  0  0  0  0  0  0  0  0  0  0  0
  1  2  1  0  0  0  0
  1  6  2  0  0  0  0
  2  3  2  0  0  0  0
  3  4  1  0  0  0  0
  3 11  1  0  0  0  0
  4  5  2  0  0  0  0
  4  8  1  0  0  0  0
  5  6  1  0  0  0  0
  6  7  1  0  0  0  0
  8  9  2  0  0  0  0
  8 10  1  0  0  0  0
M  END
>  <n>
440

>  <SMILES>
Oc1ccc(N)cc1C(O)=O

>  <IC50>
381.4

>  <Class>
0

>  <NAME>
MESALAZINE

>  <INCHI_KEY>
KBOPZPXVLCULAV-UHFFFAOYSA-N

>  <Reference>
Mitigating the inhibition of human Bile Salt Export Pump by drugs_ opportunities provided by physicochemical property modulation,  in-silico modeling and structural modification_SI

$$$$
METADOXINE
  MOE2013           2D

 12 12  0  0  0  0  0  0  0  0999 V2000
    1.2990   -0.7500    0.0000 C   0  0  0  0  0  0  0  0  0  0  0  0
    0.0000    0.0000    0.0000 C   0  0  0  0  0  0  0  0  0  0  0  0
    0.0000    1.5000    0.0000 C   0  0  0  0  0  0  0  0  0  0  0  0
   -1.2990    2.2500    0.0000 C   0  0  0  0  0  0  0  0  0  0  0  0
   -2.5980    1.5000    0.0000 C   0  0  0  0  0  0  0  0  0  0  0  0
   -2.5980    0.0000    0.0000 C   0  0  0  0  0  0  0  0  0  0  0  0
   -1.2990   -0.7500    0.0000 N   0  0  0  0  0  0  0  0  0  0  0  0
   -3.8970    2.2500    0.0000 C   0  0  0  0  0  0  0  0  0  0  0  0
   -5.1960    1.5000    0.0000 O   0  0  0  0  0  0  0  0  0  0  0  0
   -1.2990    3.7500    0.0000 C   0  0  0  0  0  0  0  0  0  0  0  0
    0.0000    4.5000    0.0000 O   0  0  0  0  0  0  0  0  0  0  0  0
    1.2990    2.2500    0.0000 O   0  0  0  0  0  0  0  0  0  0  0  0
  1  2  1  0  0  0  0
  2  3  1  0  0  0  0
  2  7  2  0  0  0  0
  3  4  2  0  0  0  0
  3 12  1  0  0  0  0
  4  5  1  0  0  0  0
  4 10  1  0  0  0  0
  5  6  2  0  0  0  0
  5  8  1  0  0  0  0
  6  7  1  0  0  0  0
  8  9  1  0  0  0  0
 10 11  1  0  0  0  0
M  END
>  <n>
441

>  <SMILES>
Oc1c(CO)c(cnc1C)CO

>  <IC50>
>1000

>  <Class>
0

>  <NAME>
METADOXINE

>  <INCHI_KEY>
LXNHXLLTXMVWPM-UHFFFAOYSA-N

>  <Reference>
Mitigating, Dawson

$$$$
METAPROTERENOL
  MOE2013           2D

 15 15  0  0  1  0  0  0  0  0999 V2000
    3.8970   -5.2500    0.0000 C   0  0  0  0  0  0  0  0  0  0  0  0
    2.5980   -4.5000    0.0000 C   0  0  0  0  0  0  0  0  0  0  0  0
    1.2990   -5.2500    0.0000 C   0  0  0  0  0  0  0  0  0  0  0  0
    2.5980   -3.0000    0.0000 N   0  0  0  0  0  0  0  0  0  0  0  0
    1.2990   -2.2500    0.0000 C   0  0  0  0  0  0  0  0  0  0  0  0
    1.2990   -0.7500    0.0000 C   0  0  3  0  0  0  0  0  0  0  0  0
    0.0000    0.0000    0.0000 C   0  0  0  0  0  0  0  0  0  0  0  0
    0.0000    1.5000    0.0000 C   0  0  0  0  0  0  0  0  0  0  0  0
   -1.2990    2.2500    0.0000 C   0  0  0  0  0  0  0  0  0  0  0  0
   -2.5980    1.5000    0.0000 C   0  0  0  0  0  0  0  0  0  0  0  0
   -2.5980    0.0000    0.0000 C   0  0  0  0  0  0  0  0  0  0  0  0
   -1.2990   -0.7500    0.0000 C   0  0  0  0  0  0  0  0  0  0  0  0
   -3.8970   -0.7500    0.0000 O   0  0  0  0  0  0  0  0  0  0  0  0
   -1.2990    3.7500    0.0000 O   0  0  0  0  0  0  0  0  0  0  0  0
    2.5980    0.0000    0.0000 O   0  0  0  0  0  0  0  0  0  0  0  0
  1  2  1  0  0  0  0
  2  3  1  0  0  0  0
  2  4  1  0  0  0  0
  4  5  1  0  0  0  0
  5  6  1  0  0  0  0
  6  7  1  0  0  0  0
  6 15  1  0  0  0  0
  7  8  1  0  0  0  0
  7 12  2  0  0  0  0
  8  9  2  0  0  0  0
  9 10  1  0  0  0  0
  9 14  1  0  0  0  0
 10 11  2  0  0  0  0
 11 12  1  0  0  0  0
 11 13  1  0  0  0  0
M  END
>  <n>
442

>  <SMILES>
Oc1cc(cc(O)c1)C(O)CNC(C)C

>  <IC50>
>1000

>  <Class>
0

>  <NAME>
METAPROTERENOL

>  <INCHI_KEY>
LMOINURANNBYCM-UHFFFAOYSA-N

>  <Reference>
Mitigating the inhibition of human Bile Salt Export Pump by drugs_ opportunities provided by physicochemical property modulation,  in-silico modeling and structural modification_SI

$$$$
METARAMINOL
  MOE2013           2D

 12 12  0  0  1  0  0  0  0  0999 V2000
    3.8970   -0.7500    0.0000 C   0  0  0  0  0  0  0  0  0  0  0  0
    2.5980    0.0000    0.0000 C   0  0  3  0  0  0  0  0  0  0  0  0
    1.2990   -0.7500    0.0000 C   0  0  3  0  0  0  0  0  0  0  0  0
    0.0000    0.0000    0.0000 C   0  0  0  0  0  0  0  0  0  0  0  0
    0.0000    1.5000    0.0000 C   0  0  0  0  0  0  0  0  0  0  0  0
   -1.2990    2.2500    0.0000 C   0  0  0  0  0  0  0  0  0  0  0  0
   -2.5980    1.5000    0.0000 C   0  0  0  0  0  0  0  0  0  0  0  0
   -2.5980    0.0000    0.0000 C   0  0  0  0  0  0  0  0  0  0  0  0
   -1.2990   -0.7500    0.0000 C   0  0  0  0  0  0  0  0  0  0  0  0
   -3.8970   -0.7500    0.0000 O   0  0  0  0  0  0  0  0  0  0  0  0
    1.2990   -2.2500    0.0000 O   0  0  0  0  0  0  0  0  0  0  0  0
    2.5980    1.5000    0.0000 N   0  0  0  0  0  0  0  0  0  0  0  0
  1  2  1  0  0  0  0
  2  3  1  0  0  0  0
  2 12  1  0  0  0  0
  3  4  1  0  0  0  0
  3 11  1  0  0  0  0
  4  5  1  0  0  0  0
  4  9  2  0  0  0  0
  5  6  2  0  0  0  0
  6  7  1  0  0  0  0
  7  8  2  0  0  0  0
  8  9  1  0  0  0  0
  8 10  1  0  0  0  0
M  END
>  <n>
443

>  <SMILES>
Oc1cc(ccc1)[C@@H](O)[C@@H](N)C

>  <IC50>
>1000

>  <Class>
0

>  <NAME>
METARAMINOL

>  <INCHI_KEY>
WXFIGDLSSYIKKV-RCOVLWMOSA-N

>  <Reference>
Mitigating the inhibition of human Bile Salt Export Pump by drugs_ opportunities provided by physicochemical property modulation,  in-silico modeling and structural modification_SI

$$$$
METERGOLINE
  MOE2013           2D

 30 34  0  0  1  0  0  0  0  0999 V2000
    3.8080    0.7500    0.0000 C   0  0  0  0  0  0  0  0  0  0  0  0
    2.3080    0.7500    0.0000 N   0  0  0  0  0  0  0  0  0  0  0  0
    1.4270   -0.4640    0.0000 C   0  0  0  0  0  0  0  0  0  0  0  0
    0.0000    0.0000    0.0000 C   0  0  0  0  0  0  0  0  0  0  0  0
    0.0000    1.5000    0.0000 C   0  0  0  0  0  0  0  0  0  0  0  0
    1.4270    1.9640    0.0000 C   0  0  0  0  0  0  0  0  0  0  0  0
    1.7380    3.4310    0.0000 C   0  0  0  0  0  0  0  0  0  0  0  0
    0.6240    4.4340    0.0000 C   0  0  0  0  0  0  0  0  0  0  0  0
   -0.8030    3.9710    0.0000 C   0  0  0  0  0  0  0  0  0  0  0  0
   -1.1150    2.5040    0.0000 C   0  0  0  0  0  0  0  0  0  0  0  0
   -2.5980    1.5000    0.0000 C   0  0  3  0  0  0  0  0  0  0  0  0
   -3.9320    2.2080    0.0000 C   0  0  0  0  0  0  0  0  0  0  0  0
   -5.2130    1.4280    0.0000 C   0  0  3  0  0  0  0  0  0  0  0  0
   -5.1770   -0.0720    0.0000 C   0  0  0  0  0  0  0  0  0  0  0  0
   -3.8610   -0.7910    0.0000 N   0  0  3  0  0  0  0  0  0  0  0  0
   -2.5980    0.0000    0.0000 C   0  0  3  0  0  0  0  0  0  0  0  0
   -1.2990   -0.7500    0.0000 C   0  0  0  0  0  0  0  0  0  0  0  0
   -3.8160   -2.2900    0.0000 C   0  0  0  0  0  0  0  0  0  0  0  0
   -6.5300    2.1460    0.0000 C   0  0  0  0  0  0  0  0  0  0  0  0
   -7.8100    1.3660    0.0000 N   0  0  0  0  0  0  0  0  0  0  0  0
   -9.1270    2.0840    0.0000 C   0  0  0  0  0  0  0  0  0  0  0  0
   -9.1630    3.5840    0.0000 O   0  0  0  0  0  0  0  0  0  0  0  0
  -10.4080    1.3040    0.0000 O   0  0  0  0  0  0  0  0  0  0  0  0
  -11.7240    2.0230    0.0000 C   0  0  0  0  0  0  0  0  0  0  0  0
  -13.0050    1.2420    0.0000 C   0  0  0  0  0  0  0  0  0  0  0  0
  -14.3220    1.9610    0.0000 C   0  0  0  0  0  0  0  0  0  0  0  0
  -15.6020    1.1800    0.0000 C   0  0  0  0  0  0  0  0  0  0  0  0
  -15.5670   -0.3200    0.0000 C   0  0  0  0  0  0  0  0  0  0  0  0
  -14.2500   -1.0380    0.0000 C   0  0  0  0  0  0  0  0  0  0  0  0
  -12.9690   -0.2580    0.0000 C   0  0  0  0  0  0  0  0  0  0  0  0
  1  2  1  0  0  0  0
  2  3  1  0  0  0  0
  2  6  1  0  0  0  0
  3  4  2  0  0  0  0
  4  5  1  0  0  0  0
  4 17  1  0  0  0  0
  5  6  1  0  0  0  0
  5 10  2  0  0  0  0
  6  7  2  0  0  0  0
  7  8  1  0  0  0  0
  8  9  2  0  0  0  0
  9 10  1  0  0  0  0
 10 11  1  0  0  0  0
 11 12  1  0  0  0  0
 11 16  1  0  0  0  0
 12 13  1  0  0  0  0
 13 14  1  0  0  0  0
 13 19  1  0  0  0  0
 14 15  1  0  0  0  0
 15 16  1  0  0  0  0
 15 18  1  0  0  0  0
 16 17  1  0  0  0  0
 19 20  1  0  0  0  0
 20 21  1  0  0  0  0
 21 22  2  0  0  0  0
 21 23  1  0  0  0  0
 23 24  1  0  0  0  0
 24 25  1  0  0  0  0
 25 26  1  0  0  0  0
 25 30  2  0  0  0  0
 26 27  2  0  0  0  0
 27 28  1  0  0  0  0
 28 29  2  0  0  0  0
 29 30  1  0  0  0  0
M  END
>  <n>
444

>  <SMILES>
O(Cc1ccccc1)C(=O)NC[C@@H]1C[C@H]2[C@H](N(C1)C)Cc1c3c2cccc3n(c1)C

>  <IC50>
<10

>  <Class>
1

>  <NAME>
METERGOLINE

>  <INCHI_KEY>
WZHJKEUHNJHDLS-QTGUNEKASA-N

>  <Reference>
Mitigating the inhibition of human Bile Salt Export Pump by drugs_ opportunities provided by physicochemical property modulation,  in-silico modeling and structural modification_SI

$$$$
METHAPYRILENE
  MOE2013           2D

 18 19  0  0  1  0  0  0  0  0999 V2000
    7.7520   -0.8150    0.0000 C   0  0  0  0  0  0  0  0  0  0  0  0
    6.3810   -1.4250    0.0000 N   0  0  0  0  0  0  0  0  0  0  0  0
    6.2240   -2.9170    0.0000 C   0  0  0  0  0  0  0  0  0  0  0  0
    5.1680   -0.5430    0.0000 C   0  0  0  0  0  0  0  0  0  0  0  0
    3.7970   -1.1530    0.0000 C   0  0  0  0  0  0  0  0  0  0  0  0
    2.5840   -0.2720    0.0000 N   0  0  3  0  0  0  0  0  0  0  0  0
    1.2140   -0.8820    0.0000 C   0  0  0  0  0  0  0  0  0  0  0  0
    0.0000    0.0000    0.0000 C   0  0  0  0  0  0  0  0  0  0  0  0
    0.0000    1.5000    0.0000 C   0  0  0  0  0  0  0  0  0  0  0  0
   -1.4270    1.9640    0.0000 C   0  0  0  0  0  0  0  0  0  0  0  0
   -2.3080    0.7500    0.0000 C   0  0  0  0  0  0  0  0  0  0  0  0
   -1.4270   -0.4640    0.0000 S   0  0  0  0  0  0  0  0  0  0  0  0
    2.7410    1.2200    0.0000 C   0  0  0  0  0  0  0  0  0  0  0  0
    4.1110    1.8300    0.0000 C   0  0  0  0  0  0  0  0  0  0  0  0
    4.2680    3.3220    0.0000 C   0  0  0  0  0  0  0  0  0  0  0  0
    3.0540    4.2040    0.0000 C   0  0  0  0  0  0  0  0  0  0  0  0
    1.6840    3.5940    0.0000 C   0  0  0  0  0  0  0  0  0  0  0  0
    1.5270    2.1020    0.0000 N   0  0  0  0  0  0  0  0  0  0  0  0
  1  2  1  0  0  0  0
  2  3  1  0  0  0  0
  2  4  1  0  0  0  0
  4  5  1  0  0  0  0
  5  6  1  0  0  0  0
  6  7  1  0  0  0  0
  6 13  1  0  0  0  0
  7  8  1  0  0  0  0
  8  9  2  0  0  0  0
  8 12  1  0  0  0  0
  9 10  1  0  0  0  0
 10 11  2  0  0  0  0
 11 12  1  0  0  0  0
 13 14  1  0  0  0  0
 13 18  2  0  0  0  0
 14 15  2  0  0  0  0
 15 16  1  0  0  0  0
 16 17  2  0  0  0  0
 17 18  1  0  0  0  0
M  END
>  <n>
445

>  <SMILES>
s1cccc1CN(CCN(C)C)c1ncccc1

>  <IC50>
>1000

>  <Class>
0

>  <NAME>
METHAPYRILENE

>  <INCHI_KEY>
HNJJXZKZRAWDPF-UHFFFAOYSA-N

>  <Reference>
Mitigating, Dawson

$$$$
METHIMAZOLE
  MOE2013           2D

  7  7  0  0  0  0  0  0  0  0999 V2000
    1.2140   -0.8820    0.0000 C   0  0  0  0  0  0  0  0  0  0  0  0
    0.0000    0.0000    0.0000 N   0  0  0  0  0  0  0  0  0  0  0  0
    0.0000    1.5000    0.0000 C   0  0  0  0  0  0  0  0  0  0  0  0
   -1.4270    1.9640    0.0000 C   0  0  0  0  0  0  0  0  0  0  0  0
   -2.3080    0.7500    0.0000 N   0  0  0  0  0  0  0  0  0  0  0  0
   -1.4270   -0.4640    0.0000 C   0  0  0  0  0  0  0  0  0  0  0  0
   -1.8900   -1.8900    0.0000 S   0  0  0  0  0  0  0  0  0  0  0  0
  1  2  1  0  0  0  0
  2  3  1  0  0  0  0
  2  6  1  0  0  0  0
  3  4  2  0  0  0  0
  4  5  1  0  0  0  0
  5  6  1  0  0  0  0
  6  7  2  0  0  0  0
M  END
>  <n>
446

>  <SMILES>
S=C1NC=CN1C

>  <IC50>
>1000

>  <Class>
0

>  <NAME>
METHIMAZOLE

>  <INCHI_KEY>
PMRYVIKBURPHAH-UHFFFAOYSA-N

>  <Reference>
Mitigating, Dawson

$$$$
METHOCARBAMOL
  MOE2013           2D

 17 17  0  0  1  0  0  0  0  0999 V2000
    2.5980    0.0000    0.0000 C   0  0  0  0  0  0  0  0  0  0  0  0
    1.2990   -0.7500    0.0000 O   0  0  0  0  0  0  0  0  0  0  0  0
    0.0000    0.0000    0.0000 C   0  0  0  0  0  0  0  0  0  0  0  0
    0.0000    1.5000    0.0000 C   0  0  0  0  0  0  0  0  0  0  0  0
   -1.2990    2.2500    0.0000 C   0  0  0  0  0  0  0  0  0  0  0  0
   -2.5980    1.5000    0.0000 C   0  0  0  0  0  0  0  0  0  0  0  0
   -2.5980    0.0000    0.0000 C   0  0  0  0  0  0  0  0  0  0  0  0
   -1.2990   -0.7500    0.0000 C   0  0  0  0  0  0  0  0  0  0  0  0
   -1.2990   -2.2500    0.0000 O   0  0  0  0  0  0  0  0  0  0  0  0
   -2.5980   -3.0000    0.0000 C   0  0  0  0  0  0  0  0  0  0  0  0
   -2.5980   -4.5000    0.0000 C   0  0  3  0  0  0  0  0  0  0  0  0
   -3.8970   -5.2500    0.0000 C   0  0  0  0  0  0  0  0  0  0  0  0
   -3.8970   -6.7500    0.0000 O   0  0  0  0  0  0  0  0  0  0  0  0
   -5.1960   -7.5000    0.0000 C   0  0  0  0  0  0  0  0  0  0  0  0
   -5.1960   -9.0000    0.0000 O   0  0  0  0  0  0  0  0  0  0  0  0
   -6.4950   -6.7500    0.0000 N   0  0  0  0  0  0  0  0  0  0  0  0
   -1.2990   -5.2500    0.0000 O   0  0  0  0  0  0  0  0  0  0  0  0
  1  2  1  0  0  0  0
  2  3  1  0  0  0  0
  3  4  1  0  0  0  0
  3  8  2  0  0  0  0
  4  5  2  0  0  0  0
  5  6  1  0  0  0  0
  6  7  2  0  0  0  0
  7  8  1  0  0  0  0
  8  9  1  0  0  0  0
  9 10  1  0  0  0  0
 10 11  1  0  0  0  0
 11 12  1  0  0  0  0
 11 17  1  0  0  0  0
 12 13  1  0  0  0  0
 13 14  1  0  0  0  0
 14 15  2  0  0  0  0
 14 16  1  0  0  0  0
M  END
>  <n>
447

>  <SMILES>
O(CC(O)COC(=O)N)c1ccccc1OC

>  <IC50>
>1000

>  <Class>
0

>  <NAME>
METHOCARBAMOL

>  <INCHI_KEY>
GNXFOGHNGIVQEH-UHFFFAOYSA-N

>  <Reference>
Mitigating the inhibition of human Bile Salt Export Pump by drugs_ opportunities provided by physicochemical property modulation,  in-silico modeling and structural modification_SI

$$$$
Methotrexate
  MOE2013           2D

 33 35  0  0  1  0  0  0  0  0999 V2000
    5.1960    0.0000    0.0000 C   0  0  0  0  0  0  0  0  0  0  0  0
    5.1960    1.5000    0.0000 N   0  0  3  0  0  0  0  0  0  0  0  0
    3.8970    2.2500    0.0000 C   0  0  0  0  0  0  0  0  0  0  0  0
    2.5980    1.5000    0.0000 C   0  0  0  0  0  0  0  0  0  0  0  0
    2.5980    0.0000    0.0000 C   0  0  0  0  0  0  0  0  0  0  0  0
    1.2990   -0.7500    0.0000 N   0  0  0  0  0  0  0  0  0  0  0  0
    0.0000    0.0000    0.0000 C   0  0  0  0  0  0  0  0  0  0  0  0
    0.0000    1.5000    0.0000 C   0  0  0  0  0  0  0  0  0  0  0  0
    1.2990    2.2500    0.0000 N   0  0  0  0  0  0  0  0  0  0  0  0
   -1.2990    2.2500    0.0000 C   0  0  0  0  0  0  0  0  0  0  0  0
   -2.5980    1.5000    0.0000 N   0  0  0  0  0  0  0  0  0  0  0  0
   -2.5980    0.0000    0.0000 C   0  0  0  0  0  0  0  0  0  0  0  0
   -1.2990   -0.7500    0.0000 N   0  0  0  0  0  0  0  0  0  0  0  0
   -3.8970   -0.7500    0.0000 N   0  0  0  0  0  0  0  0  0  0  0  0
   -1.2990    3.7500    0.0000 N   0  0  0  0  0  0  0  0  0  0  0  0
    6.4950    2.2500    0.0000 C   0  0  0  0  0  0  0  0  0  0  0  0
    7.7940    1.5000    0.0000 C   0  0  0  0  0  0  0  0  0  0  0  0
    9.0930    2.2500    0.0000 C   0  0  0  0  0  0  0  0  0  0  0  0
    9.0930    3.7500    0.0000 C   0  0  0  0  0  0  0  0  0  0  0  0
    7.7940    4.5000    0.0000 C   0  0  0  0  0  0  0  0  0  0  0  0
    6.4950    3.7500    0.0000 C   0  0  0  0  0  0  0  0  0  0  0  0
   10.3920    4.5000    0.0000 C   0  0  0  0  0  0  0  0  0  0  0  0
   10.3920    6.0000    0.0000 O   0  0  0  0  0  0  0  0  0  0  0  0
   11.6910    3.7500    0.0000 N   0  0  0  0  0  0  0  0  0  0  0  0
   12.9900    4.5000    0.0000 C   0  0  3  0  0  0  0  0  0  0  0  0
   14.2890    3.7500    0.0000 C   0  0  0  0  0  0  0  0  0  0  0  0
   15.5880    4.5000    0.0000 C   0  0  0  0  0  0  0  0  0  0  0  0
   16.8880    3.7500    0.0000 C   0  0  0  0  0  0  0  0  0  0  0  0
   18.1860    4.5000    0.0000 O   0  0  0  0  0  0  0  0  0  0  0  0
   16.8880    2.2500    0.0000 O   0  0  0  0  0  0  0  0  0  0  0  0
   12.9900    6.0000    0.0000 C   0  0  0  0  0  0  0  0  0  0  0  0
   14.2890    6.7500    0.0000 O   0  0  0  0  0  0  0  0  0  0  0  0
   11.6910    6.7500    0.0000 O   0  0  0  0  0  0  0  0  0  0  0  0
  1  2  1  0  0  0  0
  2  3  1  0  0  0  0
  2 16  1  0  0  0  0
  3  4  1  0  0  0  0
  4  5  1  0  0  0  0
  4  9  2  0  0  0  0
  5  6  2  0  0  0  0
  6  7  1  0  0  0  0
  7  8  1  0  0  0  0
  7 13  2  0  0  0  0
  8  9  1  0  0  0  0
  8 10  2  0  0  0  0
 10 11  1  0  0  0  0
 10 15  1  0  0  0  0
 11 12  2  0  0  0  0
 12 13  1  0  0  0  0
 12 14  1  0  0  0  0
 16 17  1  0  0  0  0
 16 21  2  0  0  0  0
 17 18  2  0  0  0  0
 18 19  1  0  0  0  0
 19 20  2  0  0  0  0
 19 22  1  0  0  0  0
 20 21  1  0  0  0  0
 22 23  2  0  0  0  0
 22 24  1  0  0  0  0
 24 25  1  0  0  0  0
 25 26  1  0  0  0  0
 25 31  1  0  0  0  0
 26 27  1  0  0  0  0
 27 28  1  0  0  0  0
 28 29  2  0  0  0  0
 28 30  1  0  0  0  0
 31 32  2  0  0  0  0
 31 33  1  0  0  0  0
M  END
>  <n>
194

>  <SMILES>
OC(=O)CC[C@H](NC(=O)c1ccc(N(Cc2nc3c(nc(nc3N)N)nc2)C)cc1)C(O)=O

>  <IC50>
>1000

>  <Class>
0

>  <NAME>
METHOTREXATE

>  <INCHI_KEY>
FBOZXECLQNJBKD-ZDUSSCGKSA-N

>  <Reference>
Mitigating, Dawson

$$$$
METHOXAMINE
  MOE2013           2D

 15 15  0  0  1  0  0  0  0  0999 V2000
    3.8970   -0.7500    0.0000 C   0  0  0  0  0  0  0  0  0  0  0  0
    2.5980    0.0000    0.0000 C   0  0  3  0  0  0  0  0  0  0  0  0
    1.2990   -0.7500    0.0000 C   0  0  3  0  0  0  0  0  0  0  0  0
    0.0000    0.0000    0.0000 C   0  0  0  0  0  0  0  0  0  0  0  0
    0.0000    1.5000    0.0000 C   0  0  0  0  0  0  0  0  0  0  0  0
   -1.2990    2.2500    0.0000 C   0  0  0  0  0  0  0  0  0  0  0  0
   -2.5980    1.5000    0.0000 C   0  0  0  0  0  0  0  0  0  0  0  0
   -2.5980    0.0000    0.0000 C   0  0  0  0  0  0  0  0  0  0  0  0
   -1.2990   -0.7500    0.0000 C   0  0  0  0  0  0  0  0  0  0  0  0
   -1.2990   -2.2500    0.0000 O   0  0  0  0  0  0  0  0  0  0  0  0
   -2.5980   -3.0000    0.0000 C   0  0  0  0  0  0  0  0  0  0  0  0
   -1.2990    3.7500    0.0000 O   0  0  0  0  0  0  0  0  0  0  0  0
   -2.5980    4.5000    0.0000 C   0  0  0  0  0  0  0  0  0  0  0  0
    1.2990   -2.2500    0.0000 O   0  0  0  0  0  0  0  0  0  0  0  0
    2.5980    1.5000    0.0000 N   0  0  0  0  0  0  0  0  0  0  0  0
  1  2  1  0  0  0  0
  2  3  1  0  0  0  0
  2 15  1  0  0  0  0
  3  4  1  0  0  0  0
  3 14  1  0  0  0  0
  4  5  1  0  0  0  0
  4  9  2  0  0  0  0
  5  6  2  0  0  0  0
  6  7  1  0  0  0  0
  6 12  1  0  0  0  0
  7  8  2  0  0  0  0
  8  9  1  0  0  0  0
  9 10  1  0  0  0  0
 10 11  1  0  0  0  0
 12 13  1  0  0  0  0
M  END
>  <n>
448

>  <SMILES>
O(C)c1ccc(OC)cc1C(O)C(N)C

>  <IC50>
>1000

>  <Class>
0

>  <NAME>
METHOXAMINE

>  <INCHI_KEY>
WJAJPNHVVFWKKL-UHFFFAOYSA-N

>  <Reference>
Mitigating the inhibition of human Bile Salt Export Pump by drugs_ opportunities provided by physicochemical property modulation,  in-silico modeling and structural modification_SI

$$$$
Methyldopa
  MOE2013           2D

 15 15  0  0  1  0  0  0  0  0999 V2000
    6.4950   -0.7500    0.0000 C   0  0  0  0  0  0  0  0  0  0  0  0
    5.1960    0.0000    0.0000 O   0  0  0  0  0  0  0  0  0  0  0  0
    3.8970   -0.7500    0.0000 C   0  0  0  0  0  0  0  0  0  0  0  0
    3.8970   -2.2500    0.0000 O   0  0  0  0  0  0  0  0  0  0  0  0
    2.5980    0.0000    0.0000 C   0  0  3  0  0  0  0  0  0  0  0  0
    2.5980    1.5000    0.0000 N   0  0  0  0  0  0  0  0  0  0  0  0
    1.2990   -0.7500    0.0000 C   0  0  0  0  0  0  0  0  0  0  0  0
    0.0000    0.0000    0.0000 C   0  0  0  0  0  0  0  0  0  0  0  0
    0.0000    1.5000    0.0000 C   0  0  0  0  0  0  0  0  0  0  0  0
   -1.2990    2.2500    0.0000 C   0  0  0  0  0  0  0  0  0  0  0  0
   -2.5980    1.5000    0.0000 C   0  0  0  0  0  0  0  0  0  0  0  0
   -3.8970    2.2500    0.0000 O   0  0  0  0  0  0  0  0  0  0  0  0
   -2.5980    0.0000    0.0000 C   0  0  0  0  0  0  0  0  0  0  0  0
   -1.2990   -0.7500    0.0000 C   0  0  0  0  0  0  0  0  0  0  0  0
   -3.8970   -0.7500    0.0000 O   0  0  0  0  0  0  0  0  0  0  0  0
  1  2  1  0  0  0  0
  2  3  1  0  0  0  0
  3  4  2  0  0  0  0
  3  5  1  0  0  0  0
  5  6  1  0  0  0  0
  5  7  1  0  0  0  0
  7  8  1  0  0  0  0
  8  9  1  0  0  0  0
  8 14  2  0  0  0  0
  9 10  2  0  0  0  0
 10 11  1  0  0  0  0
 11 12  1  0  0  0  0
 11 13  2  0  0  0  0
 13 14  1  0  0  0  0
 13 15  1  0  0  0  0
M  END
>  <n>
55

>  <IC50>
>1000

>  <Class>
0

>  <NAME>
METHYLDOPA

>  <INCHI_KEY>
XBBDACCLCFWBSI-ZETCQYMHSA-N

>  <Reference>
Dawson

$$$$
METHYLTHIOURACIL
  MOE2013           2D

  9  9  0  0  0  0  0  0  0  0999 V2000
    1.2990   -0.7500    0.0000 C   0  0  0  0  0  0  0  0  0  0  0  0
    0.0000    0.0000    0.0000 C   0  0  0  0  0  0  0  0  0  0  0  0
    0.0000    1.5000    0.0000 C   0  0  0  0  0  0  0  0  0  0  0  0
   -1.2990    2.2500    0.0000 C   0  0  0  0  0  0  0  0  0  0  0  0
   -1.2990    3.7500    0.0000 O   0  0  0  0  0  0  0  0  0  0  0  0
   -2.5980    1.5000    0.0000 N   0  0  0  0  0  0  0  0  0  0  0  0
   -2.5980    0.0000    0.0000 C   0  0  0  0  0  0  0  0  0  0  0  0
   -3.8970   -0.7500    0.0000 S   0  0  0  0  0  0  0  0  0  0  0  0
   -1.2990   -0.7500    0.0000 N   0  0  0  0  0  0  0  0  0  0  0  0
  1  2  1  0  0  0  0
  2  3  2  0  0  0  0
  2  9  1  0  0  0  0
  3  4  1  0  0  0  0
  4  5  2  0  0  0  0
  4  6  1  0  0  0  0
  6  7  1  0  0  0  0
  7  8  2  0  0  0  0
  7  9  1  0  0  0  0
M  END
>  <n>
449

>  <SMILES>
S=C1NC(=CC(=O)N1)C

>  <IC50>
>1000

>  <Class>
0

>  <NAME>
METHYLTHIOURACIL

>  <INCHI_KEY>
HWGBHCRJGXAGEU-UHFFFAOYSA-N

>  <Reference>
Mitigating the inhibition of human Bile Salt Export Pump by drugs_ opportunities provided by physicochemical property modulation,  in-silico modeling and structural modification_SI

$$$$
METRIZAMIDE
  MOE2013           2D

 32 33  0  0  1  0  0  0  0  0999 V2000
    2.5980   -3.0000    0.0000 C   0  0  0  0  0  0  0  0  0  0  0  0
    1.2990   -2.2500    0.0000 C   0  0  0  0  0  0  0  0  0  0  0  0
    0.0000   -3.0000    0.0000 O   0  0  0  0  0  0  0  0  0  0  0  0
    1.2990   -0.7500    0.0000 N   0  0  0  0  0  0  0  0  0  0  0  0
    0.0000    0.0000    0.0000 C   0  0  0  0  0  0  0  0  0  0  0  0
    0.0000    1.5000    0.0000 C   0  0  0  0  0  0  0  0  0  0  0  0
   -1.2990    2.2500    0.0000 C   0  0  0  0  0  0  0  0  0  0  0  0
   -2.5980    1.5000    0.0000 C   0  0  0  0  0  0  0  0  0  0  0  0
   -2.5980    0.0000    0.0000 C   0  0  0  0  0  0  0  0  0  0  0  0
   -1.2990   -0.7500    0.0000 C   0  0  0  0  0  0  0  0  0  0  0  0
   -1.2990   -2.2500    0.0000 I   0  0  0  0  0  0  0  0  0  0  0  0
   -3.8970   -0.7500    0.0000 N   0  0  0  0  0  0  0  0  0  0  0  0
   -3.8970   -2.2500    0.0000 C   0  0  0  0  0  0  0  0  0  0  0  0
   -5.1960    0.0000    0.0000 C   0  0  0  0  0  0  0  0  0  0  0  0
   -6.4950   -0.7500    0.0000 O   0  0  0  0  0  0  0  0  0  0  0  0
   -5.1960    1.5000    0.0000 C   0  0  0  0  0  0  0  0  0  0  0  0
   -3.8970    2.2500    0.0000 I   0  0  0  0  0  0  0  0  0  0  0  0
   -1.2990    3.7500    0.0000 C   0  0  0  0  0  0  0  0  0  0  0  0
   -2.5980    4.5000    0.0000 O   0  0  0  0  0  0  0  0  0  0  0  0
    0.0000    4.5000    0.0000 N   0  0  0  0  0  0  0  0  0  0  0  0
    0.0000    6.0000    0.0000 C   0  0  3  0  0  0  0  0  0  0  0  0
    1.2990    6.7500    0.0000 C   0  0  3  0  0  0  0  0  0  0  0  0
    1.2990    8.2500    0.0000 C   0  0  3  0  0  0  0  0  0  0  0  0
    0.0000    9.0000    0.0000 C   0  0  3  0  0  0  0  0  0  0  0  0
   -1.2990    8.2500    0.0000 O   0  0  0  0  0  0  0  0  0  0  0  0
   -1.2990    6.7500    0.0000 C   0  0  3  0  0  0  0  0  0  0  0  0
   -2.5980    6.0000    0.0000 O   0  0  0  0  0  0  0  0  0  0  0  0
    0.0000   10.5000    0.0000 C   0  0  0  0  0  0  0  0  0  0  0  0
    1.2990   11.2500    0.0000 O   0  0  0  0  0  0  0  0  0  0  0  0
    2.5980    9.0000    0.0000 O   0  0  0  0  0  0  0  0  0  0  0  0
    2.5980    6.0000    0.0000 O   0  0  0  0  0  0  0  0  0  0  0  0
    1.2990    2.2500    0.0000 I   0  0  0  0  0  0  0  0  0  0  0  0
  1  2  1  0  0  0  0
  2  3  2  0  0  0  0
  2  4  1  0  0  0  0
  4  5  1  0  0  0  0
  5  6  1  0  0  0  0
  5 10  2  0  0  0  0
  6  7  2  0  0  0  0
  6 32  1  0  0  0  0
  7  8  1  0  0  0  0
  7 18  1  0  0  0  0
  8  9  2  0  0  0  0
  8 17  1  0  0  0  0
  9 10  1  0  0  0  0
  9 12  1  0  0  0  0
 10 11  1  0  0  0  0
 12 13  1  0  0  0  0
 12 14  1  0  0  0  0
 14 15  2  0  0  0  0
 14 16  1  0  0  0  0
 18 19  2  0  0  0  0
 18 20  1  0  0  0  0
 20 21  1  0  0  0  0
 21 22  1  0  0  0  0
 21 26  1  0  0  0  0
 22 23  1  0  0  0  0
 22 31  1  0  0  0  0
 23 24  1  0  0  0  0
 23 30  1  0  0  0  0
 24 25  1  0  0  0  0
 24 28  1  0  0  0  0
 25 26  1  0  0  0  0
 26 27  1  0  0  0  0
 28 29  1  0  0  0  0
M  END
>  <n>
450

>  <SMILES>
Ic1c(C(=O)NC2C(O)C(O)C(OC2O)CO)c(I)c(NC(=O)C)c(I)c1N(C(=O)C)C

>  <IC50>
>1000

>  <Class>
0

>  <NAME>
METRIZAMIDE

>  <INCHI_KEY>
BAQCROVBDNBEEB-UHFFFAOYSA-N

>  <Reference>
Mitigating the inhibition of human Bile Salt Export Pump by drugs_ opportunities provided by physicochemical property modulation,  in-silico modeling and structural modification_SI

$$$$
METYRAPONE
  MOE2013           2D

 17 18  0  0  0  0  0  0  0  0999 V2000
   -0.1780   -1.9900    0.0000 C   0  0  0  0  0  0  0  0  0  0  0  0
    1.2990   -2.2500    0.0000 C   0  0  0  0  0  0  0  0  0  0  0  0
    0.7860   -3.6600    0.0000 C   0  0  0  0  0  0  0  0  0  0  0  0
    2.5980   -3.0000    0.0000 C   0  0  0  0  0  0  0  0  0  0  0  0
    2.5980   -4.5000    0.0000 C   0  0  0  0  0  0  0  0  0  0  0  0
    3.8970   -5.2500    0.0000 C   0  0  0  0  0  0  0  0  0  0  0  0
    5.1960   -4.5000    0.0000 C   0  0  0  0  0  0  0  0  0  0  0  0
    5.1960   -3.0000    0.0000 N   0  0  0  0  0  0  0  0  0  0  0  0
    3.8970   -2.2500    0.0000 C   0  0  0  0  0  0  0  0  0  0  0  0
    1.2990   -0.7500    0.0000 C   0  0  0  0  0  0  0  0  0  0  0  0
    2.5980    0.0000    0.0000 O   0  0  0  0  0  0  0  0  0  0  0  0
    0.0000    0.0000    0.0000 C   0  0  0  0  0  0  0  0  0  0  0  0
    0.0000    1.5000    0.0000 C   0  0  0  0  0  0  0  0  0  0  0  0
   -1.2990    2.2500    0.0000 C   0  0  0  0  0  0  0  0  0  0  0  0
   -2.5980    1.5000    0.0000 C   0  0  0  0  0  0  0  0  0  0  0  0
   -2.5980    0.0000    0.0000 N   0  0  0  0  0  0  0  0  0  0  0  0
   -1.2990   -0.7500    0.0000 C   0  0  0  0  0  0  0  0  0  0  0  0
  1  2  1  0  0  0  0
  2  3  1  0  0  0  0
  2  4  1  0  0  0  0
  2 10  1  0  0  0  0
  4  5  1  0  0  0  0
  4  9  2  0  0  0  0
  5  6  2  0  0  0  0
  6  7  1  0  0  0  0
  7  8  2  0  0  0  0
  8  9  1  0  0  0  0
 10 11  2  0  0  0  0
 10 12  1  0  0  0  0
 12 13  1  0  0  0  0
 12 17  2  0  0  0  0
 13 14  2  0  0  0  0
 14 15  1  0  0  0  0
 15 16  2  0  0  0  0
 16 17  1  0  0  0  0
M  END
>  <n>
451

>  <SMILES>
O=C(C(C)(C)c1cccnc1)c1cccnc1

>  <IC50>
229.3

>  <Class>
0

>  <NAME>
METYRAPONE

>  <INCHI_KEY>
FJLBFSROUSIWMA-UHFFFAOYSA-N

>  <Reference>
Mitigating the inhibition of human Bile Salt Export Pump by drugs_ opportunities provided by physicochemical property modulation,  in-silico modeling and structural modification_SI

$$$$
MINIZIDE
  MOE2013           2D

 28 31  0  0  0  0  0  0  0  0999 V2000
    1.2990   -2.2500    0.0000 C   0  0  0  0  0  0  0  0  0  0  0  0
    1.2990   -0.7500    0.0000 O   0  0  0  0  0  0  0  0  0  0  0  0
    0.0000    0.0000    0.0000 C   0  0  0  0  0  0  0  0  0  0  0  0
    0.0000    1.5000    0.0000 C   0  0  0  0  0  0  0  0  0  0  0  0
   -1.2990    2.2500    0.0000 C   0  0  0  0  0  0  0  0  0  0  0  0
   -2.5980    1.5000    0.0000 C   0  0  0  0  0  0  0  0  0  0  0  0
   -2.5980    0.0000    0.0000 C   0  0  0  0  0  0  0  0  0  0  0  0
   -1.2990   -0.7500    0.0000 C   0  0  0  0  0  0  0  0  0  0  0  0
   -1.2990   -2.2500    0.0000 O   0  0  0  0  0  0  0  0  0  0  0  0
    0.0000   -3.0000    0.0000 C   0  0  0  0  0  0  0  0  0  0  0  0
   -3.8970    2.2500    0.0000 N   0  0  0  0  0  0  0  0  0  0  0  0
   -3.8970    3.7500    0.0000 C   0  0  0  0  0  0  0  0  0  0  0  0
   -2.5980    4.5000    0.0000 N   0  0  0  0  0  0  0  0  0  0  0  0
   -1.2990    3.7500    0.0000 C   0  0  0  0  0  0  0  0  0  0  0  0
    0.0000    4.5000    0.0000 N   0  0  0  0  0  0  0  0  0  0  0  0
   -5.1960    4.5000    0.0000 N   0  0  0  0  0  0  0  0  0  0  0  0
   -5.1960    6.0000    0.0000 C   0  0  0  0  0  0  0  0  0  0  0  0
   -6.4950    6.7500    0.0000 C   0  0  0  0  0  0  0  0  0  0  0  0
   -7.7940    6.0000    0.0000 N   0  0  0  0  0  0  0  0  0  0  0  0
   -7.7940    4.5000    0.0000 C   0  0  0  0  0  0  0  0  0  0  0  0
   -6.4950    3.7500    0.0000 C   0  0  0  0  0  0  0  0  0  0  0  0
   -9.0930    6.7500    0.0000 C   0  0  0  0  0  0  0  0  0  0  0  0
  -10.3920    6.0000    0.0000 O   0  0  0  0  0  0  0  0  0  0  0  0
   -9.0930    8.2500    0.0000 C   0  0  0  0  0  0  0  0  0  0  0  0
   -7.8800    9.1320    0.0000 C   0  0  0  0  0  0  0  0  0  0  0  0
   -8.3430   10.5580    0.0000 C   0  0  0  0  0  0  0  0  0  0  0  0
   -9.8430   10.5580    0.0000 C   0  0  0  0  0  0  0  0  0  0  0  0
  -10.3070    9.1320    0.0000 O   0  0  0  0  0  0  0  0  0  0  0  0
  1  2  1  0  0  0  0
  2  3  1  0  0  0  0
  3  4  1  0  0  0  0
  3  8  2  0  0  0  0
  4  5  2  0  0  0  0
  5  6  1  0  0  0  0
  5 14  1  0  0  0  0
  6  7  2  0  0  0  0
  6 11  1  0  0  0  0
  7  8  1  0  0  0  0
  8  9  1  0  0  0  0
  9 10  1  0  0  0  0
 11 12  2  0  0  0  0
 12 13  1  0  0  0  0
 12 16  1  0  0  0  0
 13 14  2  0  0  0  0
 14 15  1  0  0  0  0
 16 17  1  0  0  0  0
 16 21  1  0  0  0  0
 17 18  1  0  0  0  0
 18 19  1  0  0  0  0
 19 20  1  0  0  0  0
 19 22  1  0  0  0  0
 20 21  1  0  0  0  0
 22 23  2  0  0  0  0
 22 24  1  0  0  0  0
 24 25  2  0  0  0  0
 24 28  1  0  0  0  0
 25 26  1  0  0  0  0
 26 27  2  0  0  0  0
 27 28  1  0  0  0  0
M  END
>  <n>
453

>  <SMILES>
o1cccc1C(=O)N1CCN(CC1)c1nc(N)c2cc(OC)c(OC)cc2n1

>  <IC50>
171.8

>  <Class>
0

>  <NAME>
MINIZIDE

>  <INCHI_KEY>
IENZQIKPVFGBNW-UHFFFAOYSA-N

>  <Reference>
Mitigating the inhibition of human Bile Salt Export Pump by drugs_ opportunities provided by physicochemical property modulation,  in-silico modeling and structural modification_SI

$$$$
MINOCROMIL
  MOE2013           2D

 26 28  0  0  0  0  0  0  0  0999 V2000
    2.5980   -3.0000    0.0000 C   0  0  0  0  0  0  0  0  0  0  0  0
    1.2990   -2.2500    0.0000 C   0  0  0  0  0  0  0  0  0  0  0  0
    1.2990   -0.7500    0.0000 C   0  0  0  0  0  0  0  0  0  0  0  0
    0.0000    0.0000    0.0000 C   0  0  0  0  0  0  0  0  0  0  0  0
    0.0000    1.5000    0.0000 C   0  0  0  0  0  0  0  0  0  0  0  0
   -1.2990    2.2500    0.0000 C   0  0  0  0  0  0  0  0  0  0  0  0
   -2.5980    1.5000    0.0000 C   0  0  0  0  0  0  0  0  0  0  0  0
   -2.5980    0.0000    0.0000 C   0  0  0  0  0  0  0  0  0  0  0  0
   -1.2990   -0.7500    0.0000 C   0  0  0  0  0  0  0  0  0  0  0  0
   -1.2990   -2.2500    0.0000 O   0  0  0  0  0  0  0  0  0  0  0  0
   -2.5980   -3.0000    0.0000 C   0  0  0  0  0  0  0  0  0  0  0  0
   -3.8970   -2.2500    0.0000 C   0  0  0  0  0  0  0  0  0  0  0  0
   -3.8970   -0.7500    0.0000 C   0  0  0  0  0  0  0  0  0  0  0  0
   -5.1960    0.0000    0.0000 O   0  0  0  0  0  0  0  0  0  0  0  0
   -2.5980   -4.5000    0.0000 C   0  0  0  0  0  0  0  0  0  0  0  0
   -3.8970   -5.2500    0.0000 O   0  0  0  0  0  0  0  0  0  0  0  0
   -1.2990   -5.2500    0.0000 O   0  0  0  0  0  0  0  0  0  0  0  0
   -1.2990    3.7500    0.0000 C   0  0  0  0  0  0  0  0  0  0  0  0
    0.0000    4.5000    0.0000 C   0  0  0  0  0  0  0  0  0  0  0  0
    1.2990    3.7500    0.0000 C   0  0  0  0  0  0  0  0  0  0  0  0
    1.2990    2.2500    0.0000 N   0  0  0  0  0  0  0  0  0  0  0  0
    2.5980    4.5000    0.0000 C   0  0  0  0  0  0  0  0  0  0  0  0
    2.5980    6.0000    0.0000 O   0  0  0  0  0  0  0  0  0  0  0  0
    3.8970    3.7500    0.0000 O   0  0  0  0  0  0  0  0  0  0  0  0
   -2.5980    4.5000    0.0000 N   0  0  0  0  0  0  0  0  0  0  0  0
   -2.5980    6.0000    0.0000 C   0  0  0  0  0  0  0  0  0  0  0  0
  1  2  1  0  0  0  0
  2  3  1  0  0  0  0
  3  4  1  0  0  0  0
  4  5  1  0  0  0  0
  4  9  2  0  0  0  0
  5  6  1  0  0  0  0
  5 21  2  0  0  0  0
  6  7  1  0  0  0  0
  6 18  2  0  0  0  0
  7  8  2  0  0  0  0
  8  9  1  0  0  0  0
  8 13  1  0  0  0  0
  9 10  1  0  0  0  0
 10 11  1  0  0  0  0
 11 12  2  0  0  0  0
 11 15  1  0  0  0  0
 12 13  1  0  0  0  0
 13 14  2  0  0  0  0
 15 16  2  0  0  0  0
 15 17  1  0  0  0  0
 18 19  1  0  0  0  0
 18 25  1  0  0  0  0
 19 20  2  0  0  0  0
 20 21  1  0  0  0  0
 20 22  1  0  0  0  0
 22 23  2  0  0  0  0
 22 24  1  0  0  0  0
 25 26  1  0  0  0  0
M  END
>  <n>
454

>  <SMILES>
O1c2c(cc3c(nc(cc3NC)C(O)=O)c2CCC)C(=O)C=C1C(O)=O

>  <IC50>
>1000

>  <Class>
0

>  <NAME>
MINOCROMIL

>  <INCHI_KEY>
RMPRGCBYQSAAAZ-UHFFFAOYSA-N

>  <Reference>
Mitigating the inhibition of human Bile Salt Export Pump by drugs_ opportunities provided by physicochemical property modulation,  in-silico modeling and structural modification_SI

$$$$
MITOTANE
  MOE2013           2D

 18 19  0  0  1  0  0  0  0  0999 V2000
    0.0000    0.0000    0.0000 C   0  0  0  0  0  0  0  0  0  0  0  0
    0.0000    1.5000    0.0000 C   0  0  0  0  0  0  0  0  0  0  0  0
   -1.2990    2.2500    0.0000 C   0  0  0  0  0  0  0  0  0  0  0  0
   -2.5980    1.5000    0.0000 C   0  0  0  0  0  0  0  0  0  0  0  0
   -2.5980    0.0000    0.0000 C   0  0  0  0  0  0  0  0  0  0  0  0
   -1.2990   -0.7500    0.0000 C   0  0  0  0  0  0  0  0  0  0  0  0
   -3.8970   -0.7500    0.0000 C   0  0  3  0  0  0  0  0  0  0  0  0
   -5.1960    0.0000    0.0000 C   0  0  0  0  0  0  0  0  0  0  0  0
   -5.1960    1.5000    0.0000 C   0  0  0  0  0  0  0  0  0  0  0  0
   -6.4950    2.2500    0.0000 C   0  0  0  0  0  0  0  0  0  0  0  0
   -7.7940    1.5000    0.0000 C   0  0  0  0  0  0  0  0  0  0  0  0
   -7.7940    0.0000    0.0000 C   0  0  0  0  0  0  0  0  0  0  0  0
   -6.4950   -0.7500    0.0000 C   0  0  0  0  0  0  0  0  0  0  0  0
   -9.0930    2.2500    0.0000 Cl  0  0  0  0  0  0  0  0  0  0  0  0
   -3.8970   -2.2500    0.0000 C   0  0  0  0  0  0  0  0  0  0  0  0
   -5.1960   -3.0000    0.0000 Cl  0  0  0  0  0  0  0  0  0  0  0  0
   -2.5980   -3.0000    0.0000 Cl  0  0  0  0  0  0  0  0  0  0  0  0
   -3.8970    2.2500    0.0000 Cl  0  0  0  0  0  0  0  0  0  0  0  0
  1  2  1  0  0  0  0
  1  6  2  0  0  0  0
  2  3  2  0  0  0  0
  3  4  1  0  0  0  0
  4  5  2  0  0  0  0
  4 18  1  0  0  0  0
  5  6  1  0  0  0  0
  5  7  1  0  0  0  0
  7  8  1  0  0  0  0
  7 15  1  0  0  0  0
  8  9  1  0  0  0  0
  8 13  2  0  0  0  0
  9 10  2  0  0  0  0
 10 11  1  0  0  0  0
 11 12  2  0  0  0  0
 11 14  1  0  0  0  0
 12 13  1  0  0  0  0
 15 16  1  0  0  0  0
 15 17  1  0  0  0  0
M  END
>  <n>
455

>  <SMILES>
Clc1ccccc1C(C(Cl)Cl)c1ccc(Cl)cc1

>  <IC50>
<10

>  <Class>
1

>  <NAME>
MITOTANE

>  <INCHI_KEY>
JWBOIMRXGHLCPP-UHFFFAOYSA-N

>  <Reference>
Mitigating the inhibition of human Bile Salt Export Pump by drugs_ opportunities provided by physicochemical property modulation,  in-silico modeling and structural modification_SI

$$$$
MK_571
  MOE2013           2D

 34 36  0  0  1  0  0  0  0  0999 V2000
    0.0000    0.0000    0.0000 C   0  0  0  0  0  0  0  0  0  0  0  0
    0.0000    1.5000    0.0000 C   0  0  0  0  0  0  0  0  0  0  0  0
    1.2990    2.2500    0.0000 Cl  0  0  0  0  0  0  0  0  0  0  0  0
   -1.2990    2.2500    0.0000 C   0  0  0  0  0  0  0  0  0  0  0  0
   -2.5980    1.5000    0.0000 C   0  0  0  0  0  0  0  0  0  0  0  0
   -2.5980    0.0000    0.0000 C   0  0  0  0  0  0  0  0  0  0  0  0
   -3.8970   -0.7500    0.0000 C   0  0  0  0  0  0  0  0  0  0  0  0
   -3.8970   -2.2500    0.0000 C   0  0  0  0  0  0  0  0  0  0  0  0
   -2.5980   -3.0000    0.0000 C   0  0  0  0  0  0  0  0  0  0  0  0
   -1.2990   -2.2500    0.0000 N   0  0  0  0  0  0  0  0  0  0  0  0
   -1.2990   -0.7500    0.0000 C   0  0  0  0  0  0  0  0  0  0  0  0
   -2.5980   -4.5000    0.0000 C   0  0  0  0  0  0  0  0  0  0  0  0
   -3.8970   -5.2500    0.0000 C   0  0  0  0  0  0  0  0  0  0  0  0
   -3.8970   -6.7500    0.0000 C   0  0  0  0  0  0  0  0  0  0  0  0
   -5.1960   -7.5000    0.0000 C   0  0  0  0  0  0  0  0  0  0  0  0
   -5.1960   -9.0000    0.0000 C   0  0  0  0  0  0  0  0  0  0  0  0
   -3.8970   -9.7500    0.0000 C   0  0  0  0  0  0  0  0  0  0  0  0
   -2.5980   -9.0000    0.0000 C   0  0  0  0  0  0  0  0  0  0  0  0
   -2.5980   -7.5000    0.0000 C   0  0  0  0  0  0  0  0  0  0  0  0
   -6.4950   -9.7500    0.0000 C   0  0  3  0  0  0  0  0  0  0  0  0
   -6.4950  -11.2500    0.0000 S   0  0  0  0  0  0  0  0  0  0  0  0
   -7.7940  -12.0000    0.0000 C   0  0  0  0  0  0  0  0  0  0  0  0
   -7.7940  -13.5000    0.0000 C   0  0  0  0  0  0  0  0  0  0  0  0
   -9.0930  -14.2500    0.0000 C   0  0  0  0  0  0  0  0  0  0  0  0
  -10.3920  -13.5000    0.0000 O   0  0  0  0  0  0  0  0  0  0  0  0
   -9.0930  -15.7500    0.0000 N   0  0  0  0  0  0  0  0  0  0  0  0
  -10.3920  -16.5000    0.0000 C   0  0  0  0  0  0  0  0  0  0  0  0
   -7.7940  -16.5000    0.0000 C   0  0  0  0  0  0  0  0  0  0  0  0
   -7.7940   -9.0000    0.0000 S   0  0  0  0  0  0  0  0  0  0  0  0
   -9.0930   -9.7500    0.0000 C   0  0  0  0  0  0  0  0  0  0  0  0
   -9.0930  -11.2500    0.0000 C   0  0  0  0  0  0  0  0  0  0  0  0
  -10.3920  -12.0000    0.0000 C   0  0  0  0  0  0  0  0  0  0  0  0
  -10.3920  -13.5000    0.0000 O   0  0  0  0  0  0  0  0  0  0  0  0
  -11.6910  -11.2500    0.0000 O   0  0  0  0  0  0  0  0  0  0  0  0
  1  2  2  0  0  0  0
  1 11  1  0  0  0  0
  2  3  1  0  0  0  0
  2  4  1  0  0  0  0
  4  5  2  0  0  0  0
  5  6  1  0  0  0  0
  6  7  2  0  0  0  0
  6 11  1  0  0  0  0
  7  8  1  0  0  0  0
  8  9  2  0  0  0  0
  9 10  1  0  0  0  0
  9 12  1  0  0  0  0
 10 11  2  0  0  0  0
 12 13  2  0  0  0  0
 13 14  1  0  0  0  0
 14 15  2  0  0  0  0
 14 19  1  0  0  0  0
 15 16  1  0  0  0  0
 16 17  2  0  0  0  0
 16 20  1  0  0  0  0
 17 18  1  0  0  0  0
 18 19  2  0  0  0  0
 20 21  1  0  0  0  0
 20 29  1  0  0  0  0
 21 22  1  0  0  0  0
 22 23  1  0  0  0  0
 23 24  1  0  0  0  0
 24 25  2  0  0  0  0
 24 26  1  0  0  0  0
 26 27  1  0  0  0  0
 26 28  1  0  0  0  0
 29 30  1  0  0  0  0
 30 31  1  0  0  0  0
 31 32  1  0  0  0  0
 32 33  2  0  0  0  0
 32 34  1  0  0  0  0
M  END
>  <n>
1

>  <IC50>
3.5

>  <Class>
1

>  <NAME>
MK_571

>  <INCHI_KEY>
AXUZQJFHDNNPFG-UXBLZVDNSA-N

>  <Reference>
Interference

$$$$
MOXIFLOXACIN
  MOE2013           2D

 29 33  0  0  1  0  0  0  0  0999 V2000
   -0.4700   -4.4750    0.0000 C   0  0  0  0  0  0  0  0  0  0  0  0
   -0.3140   -2.9840    0.0000 O   0  0  0  0  0  0  0  0  0  0  0  0
    1.0570   -2.3740    0.0000 C   0  0  0  0  0  0  0  0  0  0  0  0
    2.2700   -3.2550    0.0000 C   0  0  0  0  0  0  0  0  0  0  0  0
    3.6410   -2.6450    0.0000 C   0  0  0  0  0  0  0  0  0  0  0  0
    3.7970   -1.1530    0.0000 C   0  0  0  0  0  0  0  0  0  0  0  0
    2.5840   -0.2720    0.0000 C   0  0  0  0  0  0  0  0  0  0  0  0
    1.2140   -0.8820    0.0000 C   0  0  0  0  0  0  0  0  0  0  0  0
    0.0000    0.0000    0.0000 N   0  0  3  0  0  0  0  0  0  0  0  0
    0.0000    1.5000    0.0000 C   0  0  0  0  0  0  0  0  0  0  0  0
   -1.4270    1.9640    0.0000 C   0  0  3  0  0  0  0  0  0  0  0  0
   -2.0370    3.3340    0.0000 C   0  0  0  0  0  0  0  0  0  0  0  0
   -3.5280    3.4910    0.0000 C   0  0  0  0  0  0  0  0  0  0  0  0
   -4.4100    2.2770    0.0000 C   0  0  0  0  0  0  0  0  0  0  0  0
   -3.8000    0.9070    0.0000 N   0  0  0  0  0  0  0  0  0  0  0  0
   -2.3080    0.7500    0.0000 C   0  0  3  0  0  0  0  0  0  0  0  0
   -1.4270   -0.4640    0.0000 C   0  0  0  0  0  0  0  0  0  0  0  0
    2.7410    1.2200    0.0000 F   0  0  0  0  0  0  0  0  0  0  0  0
    4.8540   -3.5270    0.0000 C   0  0  0  0  0  0  0  0  0  0  0  0
    6.2240   -2.9170    0.0000 O   0  0  0  0  0  0  0  0  0  0  0  0
    4.6970   -5.0180    0.0000 C   0  0  0  0  0  0  0  0  0  0  0  0
    3.3270   -5.6290    0.0000 C   0  0  0  0  0  0  0  0  0  0  0  0
    2.1140   -4.7470    0.0000 N   0  0  3  0  0  0  0  0  0  0  0  0
    0.7430   -5.3570    0.0000 C   0  0  0  0  0  0  0  0  0  0  0  0
   -0.7490   -5.2000    0.0000 C   0  0  0  0  0  0  0  0  0  0  0  0
   -0.1380   -6.5710    0.0000 C   0  0  0  0  0  0  0  0  0  0  0  0
    5.9110   -5.9000    0.0000 C   0  0  0  0  0  0  0  0  0  0  0  0
    5.7540   -7.3920    0.0000 O   0  0  0  0  0  0  0  0  0  0  0  0
    7.2810   -5.2900    0.0000 O   0  0  0  0  0  0  0  0  0  0  0  0
  1  2  1  0  0  0  0
  2  3  1  0  0  0  0
  3  4  1  0  0  0  0
  3  8  2  0  0  0  0
  4  5  2  0  0  0  0
  4 23  1  0  0  0  0
  5  6  1  0  0  0  0
  5 19  1  0  0  0  0
  6  7  2  0  0  0  0
  7  8  1  0  0  0  0
  7 18  1  0  0  0  0
  8  9  1  0  0  0  0
  9 10  1  0  0  0  0
  9 17  1  0  0  0  0
 10 11  1  0  0  0  0
 11 12  1  0  0  0  0
 11 16  1  0  0  0  0
 12 13  1  0  0  0  0
 13 14  1  0  0  0  0
 14 15  1  0  0  0  0
 15 16  1  0  0  0  0
 16 17  1  0  0  0  0
 19 20  2  0  0  0  0
 19 21  1  0  0  0  0
 21 22  2  0  0  0  0
 21 27  1  0  0  0  0
 22 23  1  0  0  0  0
 23 24  1  0  0  0  0
 24 25  1  0  0  0  0
 24 26  1  0  0  0  0
 25 26  1  0  0  0  0
 27 28  2  0  0  0  0
 27 29  1  0  0  0  0
M  END
>  <n>
456

>  <SMILES>
Fc1cc2c(N(C=C(C(O)=O)C2=O)C2CC2)c(OC)c1N1C[C@H]2[C@H](NCCC2)C1

>  <IC50>
>1000

>  <Class>
0

>  <NAME>
MOXIFLOXACIN

>  <INCHI_KEY>
FABPRXSRWADJSP-MEDUHNTESA-N

>  <Reference>
Mitigating the inhibition of human Bile Salt Export Pump by drugs_ opportunities provided by physicochemical property modulation,  in-silico modeling and structural modification_SI

$$$$
N_ACETYL_PROCAINAMIDE
  MOE2013           2D

 20 20  0  0  0  0  0  0  0  0999 V2000
    5.1960   -7.5000    0.0000 C   0  0  0  0  0  0  0  0  0  0  0  0
    3.8970   -6.7500    0.0000 C   0  0  0  0  0  0  0  0  0  0  0  0
    3.8970   -5.2500    0.0000 N   0  0  0  0  0  0  0  0  0  0  0  0
    5.1960   -4.5000    0.0000 C   0  0  0  0  0  0  0  0  0  0  0  0
    6.4950   -5.2500    0.0000 C   0  0  0  0  0  0  0  0  0  0  0  0
    2.5980   -4.5000    0.0000 C   0  0  0  0  0  0  0  0  0  0  0  0
    2.5980   -3.0000    0.0000 C   0  0  0  0  0  0  0  0  0  0  0  0
    1.2990   -2.2500    0.0000 N   0  0  0  0  0  0  0  0  0  0  0  0
    1.2990   -0.7500    0.0000 C   0  0  0  0  0  0  0  0  0  0  0  0
    2.5980    0.0000    0.0000 O   0  0  0  0  0  0  0  0  0  0  0  0
    0.0000    0.0000    0.0000 C   0  0  0  0  0  0  0  0  0  0  0  0
    0.0000    1.5000    0.0000 C   0  0  0  0  0  0  0  0  0  0  0  0
   -1.2990    2.2500    0.0000 C   0  0  0  0  0  0  0  0  0  0  0  0
   -2.5980    1.5000    0.0000 C   0  0  0  0  0  0  0  0  0  0  0  0
   -2.5980    0.0000    0.0000 C   0  0  0  0  0  0  0  0  0  0  0  0
   -1.2990   -0.7500    0.0000 C   0  0  0  0  0  0  0  0  0  0  0  0
   -3.8970    2.2500    0.0000 N   0  0  0  0  0  0  0  0  0  0  0  0
   -3.8970    3.7500    0.0000 C   0  0  0  0  0  0  0  0  0  0  0  0
   -5.1960    4.5000    0.0000 O   0  0  0  0  0  0  0  0  0  0  0  0
   -2.5980    4.5000    0.0000 C   0  0  0  0  0  0  0  0  0  0  0  0
  1  2  1  0  0  0  0
  2  3  1  0  0  0  0
  3  4  1  0  0  0  0
  3  6  1  0  0  0  0
  4  5  1  0  0  0  0
  6  7  1  0  0  0  0
  7  8  1  0  0  0  0
  8  9  1  0  0  0  0
  9 10  2  0  0  0  0
  9 11  1  0  0  0  0
 11 12  1  0  0  0  0
 11 16  2  0  0  0  0
 12 13  2  0  0  0  0
 13 14  1  0  0  0  0
 14 15  2  0  0  0  0
 14 17  1  0  0  0  0
 15 16  1  0  0  0  0
 17 18  1  0  0  0  0
 18 19  2  0  0  0  0
 18 20  1  0  0  0  0
M  END
>  <n>
457

>  <SMILES>
O=C(NCCN(CC)CC)c1ccc(NC(=O)C)cc1

>  <IC50>
>1000

>  <Class>
0

>  <NAME>
N-ACETYL PROCAINAMIDE

>  <INCHI_KEY>
KEECCEWTUVWFCV-UHFFFAOYSA-N

>  <Reference>
Mitigating the inhibition of human Bile Salt Export Pump by drugs_ opportunities provided by physicochemical property modulation,  in-silico modeling and structural modification_SI

$$$$
NAFTOPIDIL
  MOE2013           2D

 29 32  0  0  1  0  0  0  0  0999 V2000
    7.7940   13.5000    0.0000 C   0  0  0  0  0  0  0  0  0  0  0  0
    6.4950   12.7500    0.0000 O   0  0  0  0  0  0  0  0  0  0  0  0
    5.1960   13.5000    0.0000 C   0  0  0  0  0  0  0  0  0  0  0  0
    5.1960   15.0000    0.0000 C   0  0  0  0  0  0  0  0  0  0  0  0
    3.8970   15.7500    0.0000 C   0  0  0  0  0  0  0  0  0  0  0  0
    2.5980   15.0000    0.0000 C   0  0  0  0  0  0  0  0  0  0  0  0
    2.5980   13.5000    0.0000 C   0  0  0  0  0  0  0  0  0  0  0  0
    3.8970   12.7500    0.0000 C   0  0  0  0  0  0  0  0  0  0  0  0
    3.8970   11.2500    0.0000 N   0  0  0  0  0  0  0  0  0  0  0  0
    2.5980   10.5000    0.0000 C   0  0  0  0  0  0  0  0  0  0  0  0
    2.5980    9.0000    0.0000 C   0  0  0  0  0  0  0  0  0  0  0  0
    3.8970    8.2500    0.0000 N   0  0  0  0  0  0  0  0  0  0  0  0
    5.1960    9.0000    0.0000 C   0  0  0  0  0  0  0  0  0  0  0  0
    5.1960   10.5000    0.0000 C   0  0  0  0  0  0  0  0  0  0  0  0
    3.8970    6.7500    0.0000 C   0  0  0  0  0  0  0  0  0  0  0  0
    2.5980    6.0000    0.0000 C   0  0  3  0  0  0  0  0  0  0  0  0
    2.5980    4.5000    0.0000 C   0  0  0  0  0  0  0  0  0  0  0  0
    1.2990    3.7500    0.0000 O   0  0  0  0  0  0  0  0  0  0  0  0
    1.2990    2.2500    0.0000 C   0  0  0  0  0  0  0  0  0  0  0  0
    2.5980    1.5000    0.0000 C   0  0  0  0  0  0  0  0  0  0  0  0
    2.5980    0.0000    0.0000 C   0  0  0  0  0  0  0  0  0  0  0  0
    1.2990   -0.7500    0.0000 C   0  0  0  0  0  0  0  0  0  0  0  0
    0.0000    0.0000    0.0000 C   0  0  0  0  0  0  0  0  0  0  0  0
    0.0000    1.5000    0.0000 C   0  0  0  0  0  0  0  0  0  0  0  0
   -1.2990    2.2500    0.0000 C   0  0  0  0  0  0  0  0  0  0  0  0
   -2.5980    1.5000    0.0000 C   0  0  0  0  0  0  0  0  0  0  0  0
   -2.5980    0.0000    0.0000 C   0  0  0  0  0  0  0  0  0  0  0  0
   -1.2990   -0.7500    0.0000 C   0  0  0  0  0  0  0  0  0  0  0  0
    1.2990    6.7500    0.0000 O   0  0  0  0  0  0  0  0  0  0  0  0
  1  2  1  0  0  0  0
  2  3  1  0  0  0  0
  3  4  1  0  0  0  0
  3  8  2  0  0  0  0
  4  5  2  0  0  0  0
  5  6  1  0  0  0  0
  6  7  2  0  0  0  0
  7  8  1  0  0  0  0
  8  9  1  0  0  0  0
  9 10  1  0  0  0  0
  9 14  1  0  0  0  0
 10 11  1  0  0  0  0
 11 12  1  0  0  0  0
 12 13  1  0  0  0  0
 12 15  1  0  0  0  0
 13 14  1  0  0  0  0
 15 16  1  0  0  0  0
 16 17  1  0  0  0  0
 16 29  1  0  0  0  0
 17 18  1  0  0  0  0
 18 19  1  0  0  0  0
 19 20  2  0  0  0  0
 19 24  1  0  0  0  0
 20 21  1  0  0  0  0
 21 22  2  0  0  0  0
 22 23  1  0  0  0  0
 23 24  1  0  0  0  0
 23 28  2  0  0  0  0
 24 25  2  0  0  0  0
 25 26  1  0  0  0  0
 26 27  2  0  0  0  0
 27 28  1  0  0  0  0
M  END
>  <n>
459

>  <SMILES>
O(C)c1ccccc1N1CCN(CC1)CC(O)COc1c2c(ccc1)cccc2

>  <IC50>
<10

>  <Class>
1

>  <NAME>
NAFTOPIDIL

>  <INCHI_KEY>
HRRBJVNMSRJFHQ-UHFFFAOYSA-N

>  <Reference>
Mitigating the inhibition of human Bile Salt Export Pump by drugs_ opportunities provided by physicochemical property modulation,  in-silico modeling and structural modification_SI

$$$$
NAPHAZOLINE
  MOE2013           2D

 16 18  0  0  0  0  0  0  0  0999 V2000
    2.5980    1.5000    0.0000 C   0  0  0  0  0  0  0  0  0  0  0  0
    2.5980    0.0000    0.0000 C   0  0  0  0  0  0  0  0  0  0  0  0
    1.2990   -0.7500    0.0000 C   0  0  0  0  0  0  0  0  0  0  0  0
    0.0000    0.0000    0.0000 C   0  0  0  0  0  0  0  0  0  0  0  0
    0.0000    1.5000    0.0000 C   0  0  0  0  0  0  0  0  0  0  0  0
    1.2990    2.2500    0.0000 C   0  0  0  0  0  0  0  0  0  0  0  0
   -1.2990    2.2500    0.0000 C   0  0  0  0  0  0  0  0  0  0  0  0
   -2.5980    1.5000    0.0000 C   0  0  0  0  0  0  0  0  0  0  0  0
   -2.5980    0.0000    0.0000 C   0  0  0  0  0  0  0  0  0  0  0  0
   -1.2990   -0.7500    0.0000 C   0  0  0  0  0  0  0  0  0  0  0  0
   -1.2990   -2.2500    0.0000 C   0  0  0  0  0  0  0  0  0  0  0  0
   -2.5980   -3.0000    0.0000 C   0  0  0  0  0  0  0  0  0  0  0  0
   -3.9680   -2.3900    0.0000 N   0  0  0  0  0  0  0  0  0  0  0  0
   -4.9720   -3.5050    0.0000 C   0  0  0  0  0  0  0  0  0  0  0  0
   -4.2220   -4.8040    0.0000 C   0  0  0  0  0  0  0  0  0  0  0  0
   -2.7550   -4.4920    0.0000 N   0  0  0  0  0  0  0  0  0  0  0  0
  1  2  1  0  0  0  0
  1  6  2  0  0  0  0
  2  3  2  0  0  0  0
  3  4  1  0  0  0  0
  4  5  1  0  0  0  0
  4 10  2  0  0  0  0
  5  6  1  0  0  0  0
  5  7  2  0  0  0  0
  7  8  1  0  0  0  0
  8  9  2  0  0  0  0
  9 10  1  0  0  0  0
 10 11  1  0  0  0  0
 11 12  1  0  0  0  0
 12 13  2  0  0  0  0
 12 16  1  0  0  0  0
 13 14  1  0  0  0  0
 14 15  1  0  0  0  0
 15 16  1  0  0  0  0
M  END
>  <n>
460

>  <SMILES>
N1CCN=C1Cc1c2c(ccc1)cccc2

>  <IC50>
>1000

>  <Class>
0

>  <NAME>
NAPHAZOLINE

>  <INCHI_KEY>
CNIIGCLFLJGOGP-UHFFFAOYSA-N

>  <Reference>
Mitigating the inhibition of human Bile Salt Export Pump by drugs_ opportunities provided by physicochemical property modulation,  in-silico modeling and structural modification_SI

$$$$
NAPROXEN
  MOE2013           2D

 17 18  0  0  1  0  0  0  0  0999 V2000
   -1.2990   -5.2500    0.0000 C   0  0  0  0  0  0  0  0  0  0  0  0
    0.0000   -4.5000    0.0000 C   0  0  3  0  0  0  0  0  0  0  0  0
    0.0000   -3.0000    0.0000 C   0  0  0  0  0  0  0  0  0  0  0  0
    1.2990   -2.2500    0.0000 C   0  0  0  0  0  0  0  0  0  0  0  0
    1.2990   -0.7500    0.0000 C   0  0  0  0  0  0  0  0  0  0  0  0
    0.0000    0.0000    0.0000 C   0  0  0  0  0  0  0  0  0  0  0  0
    0.0000    1.5000    0.0000 C   0  0  0  0  0  0  0  0  0  0  0  0
   -1.2990    2.2500    0.0000 C   0  0  0  0  0  0  0  0  0  0  0  0
   -2.5980    1.5000    0.0000 C   0  0  0  0  0  0  0  0  0  0  0  0
   -2.5980    0.0000    0.0000 C   0  0  0  0  0  0  0  0  0  0  0  0
   -1.2990   -0.7500    0.0000 C   0  0  0  0  0  0  0  0  0  0  0  0
   -1.2990   -2.2500    0.0000 C   0  0  0  0  0  0  0  0  0  0  0  0
   -1.2990    3.7500    0.0000 O   0  0  0  0  0  0  0  0  0  0  0  0
   -2.5980    4.5000    0.0000 C   0  0  0  0  0  0  0  0  0  0  0  0
    1.2990   -5.2500    0.0000 C   0  0  0  0  0  0  0  0  0  0  0  0
    1.2990   -6.7500    0.0000 O   0  0  0  0  0  0  0  0  0  0  0  0
    2.5980   -4.5000    0.0000 O   0  0  0  0  0  0  0  0  0  0  0  0
  1  2  1  0  0  0  0
  2  3  1  0  0  0  0
  2 15  1  0  0  0  0
  3  4  1  0  0  0  0
  3 12  2  0  0  0  0
  4  5  2  0  0  0  0
  5  6  1  0  0  0  0
  6  7  1  0  0  0  0
  6 11  2  0  0  0  0
  7  8  2  0  0  0  0
  8  9  1  0  0  0  0
  8 13  1  0  0  0  0
  9 10  2  0  0  0  0
 10 11  1  0  0  0  0
 11 12  1  0  0  0  0
 13 14  1  0  0  0  0
 15 16  2  0  0  0  0
 15 17  1  0  0  0  0
M  END
>  <n>
461

>  <SMILES>
O(C)c1cc2c(cc(cc2)[C@@H](C(O)=O)C)cc1

>  <IC50>
>1000

>  <Class>
0

>  <NAME>
NAPROXEN

>  <INCHI_KEY>
CMWTZPSULFXXJA-VIFPVBQESA-N

>  <Reference>
Mitigating the inhibition of human Bile Salt Export Pump by drugs_ opportunities provided by physicochemical property modulation,  in-silico modeling and structural modification_SI

$$$$
NEDOCROMIL
  MOE2013           2D

 27 29  0  0  1  0  0  0  0  0999 V2000
    2.5980   -3.0000    0.0000 C   0  0  0  0  0  0  0  0  0  0  0  0
    1.2990   -2.2500    0.0000 C   0  0  0  0  0  0  0  0  0  0  0  0
    1.2990   -0.7500    0.0000 C   0  0  0  0  0  0  0  0  0  0  0  0
    0.0000    0.0000    0.0000 C   0  0  0  0  0  0  0  0  0  0  0  0
    0.0000    1.5000    0.0000 C   0  0  0  0  0  0  0  0  0  0  0  0
   -1.2990    2.2500    0.0000 C   0  0  0  0  0  0  0  0  0  0  0  0
   -2.5980    1.5000    0.0000 C   0  0  0  0  0  0  0  0  0  0  0  0
   -2.5980    0.0000    0.0000 C   0  0  0  0  0  0  0  0  0  0  0  0
   -1.2990   -0.7500    0.0000 C   0  0  0  0  0  0  0  0  0  0  0  0
   -1.2990   -2.2500    0.0000 O   0  0  0  0  0  0  0  0  0  0  0  0
   -2.5980   -3.0000    0.0000 C   0  0  0  0  0  0  0  0  0  0  0  0
   -3.8970   -2.2500    0.0000 C   0  0  0  0  0  0  0  0  0  0  0  0
   -3.8970   -0.7500    0.0000 C   0  0  0  0  0  0  0  0  0  0  0  0
   -5.1960    0.0000    0.0000 O   0  0  0  0  0  0  0  0  0  0  0  0
   -2.5980   -4.5000    0.0000 C   0  0  0  0  0  0  0  0  0  0  0  0
   -3.8970   -5.2500    0.0000 O   0  0  0  0  0  0  0  0  0  0  0  0
   -1.2990   -5.2500    0.0000 O   0  0  0  0  0  0  0  0  0  0  0  0
   -1.2990    3.7500    0.0000 C   0  0  0  0  0  0  0  0  0  0  0  0
   -2.5980    4.5000    0.0000 O   0  0  0  0  0  0  0  0  0  0  0  0
    0.0000    4.5000    0.0000 C   0  0  0  0  0  0  0  0  0  0  0  0
    1.2990    3.7500    0.0000 C   0  0  0  0  0  0  0  0  0  0  0  0
    1.2990    2.2500    0.0000 N   0  0  3  0  0  0  0  0  0  0  0  0
    2.5980    1.5000    0.0000 C   0  0  0  0  0  0  0  0  0  0  0  0
    3.8970    2.2500    0.0000 C   0  0  0  0  0  0  0  0  0  0  0  0
    2.5980    4.5000    0.0000 C   0  0  0  0  0  0  0  0  0  0  0  0
    2.5980    6.0000    0.0000 O   0  0  0  0  0  0  0  0  0  0  0  0
    3.8970    3.7500    0.0000 O   0  0  0  0  0  0  0  0  0  0  0  0
  1  2  1  0  0  0  0
  2  3  1  0  0  0  0
  3  4  1  0  0  0  0
  4  5  1  0  0  0  0
  4  9  2  0  0  0  0
  5  6  2  0  0  0  0
  5 22  1  0  0  0  0
  6  7  1  0  0  0  0
  6 18  1  0  0  0  0
  7  8  2  0  0  0  0
  8  9  1  0  0  0  0
  8 13  1  0  0  0  0
  9 10  1  0  0  0  0
 10 11  1  0  0  0  0
 11 12  2  0  0  0  0
 11 15  1  0  0  0  0
 12 13  1  0  0  0  0
 13 14  2  0  0  0  0
 15 16  2  0  0  0  0
 15 17  1  0  0  0  0
 18 19  2  0  0  0  0
 18 20  1  0  0  0  0
 20 21  2  0  0  0  0
 21 22  1  0  0  0  0
 21 25  1  0  0  0  0
 22 23  1  0  0  0  0
 23 24  1  0  0  0  0
 25 26  2  0  0  0  0
 25 27  1  0  0  0  0
M  END
>  <n>
462

>  <SMILES>
O1c2c(cc3c(N(CC)C(=CC3=O)C(O)=O)c2CCC)C(=O)C=C1C(O)=O

>  <IC50>
>1000

>  <Class>
0

>  <NAME>
NEDOCROMIL

>  <INCHI_KEY>
RQTOOFIXOKYGAN-UHFFFAOYSA-N

>  <Reference>
Mitigating the inhibition of human Bile Salt Export Pump by drugs_ opportunities provided by physicochemical property modulation,  in-silico modeling and structural modification_SI

$$$$
NEFAZODONE
  MOE2013           2D

 33 36  0  0  0  0  0  0  0  0999 V2000
    2.5840   -0.2720    0.0000 C   0  0  0  0  0  0  0  0  0  0  0  0
    1.2140   -0.8820    0.0000 C   0  0  0  0  0  0  0  0  0  0  0  0
    0.0000    0.0000    0.0000 C   0  0  0  0  0  0  0  0  0  0  0  0
    0.0000    1.5000    0.0000 N   0  0  0  0  0  0  0  0  0  0  0  0
   -1.4270    1.9640    0.0000 N   0  0  0  0  0  0  0  0  0  0  0  0
   -2.3080    0.7500    0.0000 C   0  0  0  0  0  0  0  0  0  0  0  0
   -3.8080    0.7500    0.0000 O   0  0  0  0  0  0  0  0  0  0  0  0
   -1.4270   -0.4640    0.0000 N   0  0  0  0  0  0  0  0  0  0  0  0
   -1.8900   -1.8900    0.0000 C   0  0  0  0  0  0  0  0  0  0  0  0
   -3.3570   -2.2020    0.0000 C   0  0  0  0  0  0  0  0  0  0  0  0
   -3.8210   -3.6290    0.0000 O   0  0  0  0  0  0  0  0  0  0  0  0
   -5.2880   -3.9400    0.0000 C   0  0  0  0  0  0  0  0  0  0  0  0
   -6.2920   -2.8260    0.0000 C   0  0  0  0  0  0  0  0  0  0  0  0
   -7.7590   -3.1380    0.0000 C   0  0  0  0  0  0  0  0  0  0  0  0
   -8.2220   -4.5640    0.0000 C   0  0  0  0  0  0  0  0  0  0  0  0
   -7.2190   -5.6790    0.0000 C   0  0  0  0  0  0  0  0  0  0  0  0
   -5.7520   -5.3670    0.0000 C   0  0  0  0  0  0  0  0  0  0  0  0
   -1.8900    3.3900    0.0000 C   0  0  0  0  0  0  0  0  0  0  0  0
   -0.8860    4.5050    0.0000 C   0  0  0  0  0  0  0  0  0  0  0  0
   -1.3500    5.9310    0.0000 C   0  0  0  0  0  0  0  0  0  0  0  0
   -0.3460    7.0460    0.0000 N   0  0  0  0  0  0  0  0  0  0  0  0
    1.1210    6.7340    0.0000 C   0  0  0  0  0  0  0  0  0  0  0  0
    2.1250    7.8490    0.0000 C   0  0  0  0  0  0  0  0  0  0  0  0
    1.6610    9.2760    0.0000 N   0  0  0  0  0  0  0  0  0  0  0  0
    0.1940    9.5870    0.0000 C   0  0  0  0  0  0  0  0  0  0  0  0
   -0.8100    8.4730    0.0000 C   0  0  0  0  0  0  0  0  0  0  0  0
    2.6650   10.3900    0.0000 C   0  0  0  0  0  0  0  0  0  0  0  0
    4.1320   10.0780    0.0000 C   0  0  0  0  0  0  0  0  0  0  0  0
    5.1360   11.1930    0.0000 C   0  0  0  0  0  0  0  0  0  0  0  0
    4.6720   12.6200    0.0000 C   0  0  0  0  0  0  0  0  0  0  0  0
    3.2050   12.9320    0.0000 C   0  0  0  0  0  0  0  0  0  0  0  0
    2.2010   11.8170    0.0000 C   0  0  0  0  0  0  0  0  0  0  0  0
    2.7420   14.3580    0.0000 Cl  0  0  0  0  0  0  0  0  0  0  0  0
  1  2  1  0  0  0  0
  2  3  1  0  0  0  0
  3  4  2  0  0  0  0
  3  8  1  0  0  0  0
  4  5  1  0  0  0  0
  5  6  1  0  0  0  0
  5 18  1  0  0  0  0
  6  7  2  0  0  0  0
  6  8  1  0  0  0  0
  8  9  1  0  0  0  0
  9 10  1  0  0  0  0
 10 11  1  0  0  0  0
 11 12  1  0  0  0  0
 12 13  1  0  0  0  0
 12 17  2  0  0  0  0
 13 14  2  0  0  0  0
 14 15  1  0  0  0  0
 15 16  2  0  0  0  0
 16 17  1  0  0  0  0
 18 19  1  0  0  0  0
 19 20  1  0  0  0  0
 20 21  1  0  0  0  0
 21 22  1  0  0  0  0
 21 26  1  0  0  0  0
 22 23  1  0  0  0  0
 23 24  1  0  0  0  0
 24 25  1  0  0  0  0
 24 27  1  0  0  0  0
 25 26  1  0  0  0  0
 27 28  1  0  0  0  0
 27 32  2  0  0  0  0
 28 29  2  0  0  0  0
 29 30  1  0  0  0  0
 30 31  2  0  0  0  0
 31 32  1  0  0  0  0
 31 33  1  0  0  0  0
M  END
>  <n>
463

>  <SMILES>
Clc1cc(N2CCN(CC2)CCCN2N=C(N(CCOc3ccccc3)C2=O)CC)ccc1

>  <IC50>
<10

>  <Class>
1

>  <NAME>
NEFAZODONE

>  <INCHI_KEY>
VRBKIVRKKCLPHA-UHFFFAOYSA-N

>  <Reference>
Mitigating, Dawson, Interference

$$$$
NEOSTIGMINE
  MOE2013           2D

 16 16  0  0  0  0  0  0  0  0999 V2000
    5.1960    0.0000    0.0000 C   0  0  0  0  0  0  0  0  0  0  0  0
    3.8970   -0.7500    0.0000 N   0  0  0  0  0  0  0  0  0  0  0  0
    3.8970   -2.2500    0.0000 C   0  0  0  0  0  0  0  0  0  0  0  0
    2.5980    0.0000    0.0000 C   0  0  0  0  0  0  0  0  0  0  0  0
    2.5980    1.5000    0.0000 O   0  0  0  0  0  0  0  0  0  0  0  0
    1.2990   -0.7500    0.0000 O   0  0  0  0  0  0  0  0  0  0  0  0
    0.0000    0.0000    0.0000 C   0  0  0  0  0  0  0  0  0  0  0  0
    0.0000    1.5000    0.0000 C   0  0  0  0  0  0  0  0  0  0  0  0
   -1.2990    2.2500    0.0000 C   0  0  0  0  0  0  0  0  0  0  0  0
   -2.5980    1.5000    0.0000 C   0  0  0  0  0  0  0  0  0  0  0  0
   -2.5980    0.0000    0.0000 C   0  0  0  0  0  0  0  0  0  0  0  0
   -1.2990   -0.7500    0.0000 C   0  0  0  0  0  0  0  0  0  0  0  0
   -3.8970   -0.7500    0.0000 N   0  3  0  0  0  0  0  0  0  0  0  0
   -5.1960    0.0000    0.0000 C   0  0  0  0  0  0  0  0  0  0  0  0
   -4.8610   -1.8990    0.0000 C   0  0  0  0  0  0  0  0  0  0  0  0
   -2.9330   -1.8990    0.0000 C   0  0  0  0  0  0  0  0  0  0  0  0
  1  2  1  0  0  0  0
  2  3  1  0  0  0  0
  2  4  1  0  0  0  0
  4  5  2  0  0  0  0
  4  6  1  0  0  0  0
  6  7  1  0  0  0  0
  7  8  1  0  0  0  0
  7 12  2  0  0  0  0
  8  9  2  0  0  0  0
  9 10  1  0  0  0  0
 10 11  2  0  0  0  0
 11 12  1  0  0  0  0
 11 13  1  0  0  0  0
 13 14  1  0  0  0  0
 13 15  1  0  0  0  0
 13 16  1  0  0  0  0
M  CHG  1  13   1
M  END
>  <n>
464

>  <SMILES>
O(C(=O)N(C)C)c1cc([N+](C)(C)C)ccc1

>  <IC50>
>1000

>  <Class>
0

>  <NAME>
NEOSTIGMINE

>  <INCHI_KEY>
ALWKGYPQUAPLQC-UHFFFAOYSA-N

>  <Reference>
Mitigating the inhibition of human Bile Salt Export Pump by drugs_ opportunities provided by physicochemical property modulation,  in-silico modeling and structural modification_SI

$$$$
NEVIRAPINE
  MOE2013           2D

 20 23  0  0  1  0  0  0  0  0999 V2000
    1.2990    3.7500    0.0000 C   0  0  0  0  0  0  0  0  0  0  0  0
    1.2990    2.2500    0.0000 C   0  0  0  0  0  0  0  0  0  0  0  0
    2.5980    1.5000    0.0000 C   0  0  0  0  0  0  0  0  0  0  0  0
    2.5980    0.0000    0.0000 C   0  0  0  0  0  0  0  0  0  0  0  0
    1.2990   -0.7500    0.0000 N   0  0  0  0  0  0  0  0  0  0  0  0
    0.0000    0.0000    0.0000 C   0  0  0  0  0  0  0  0  0  0  0  0
    0.0000    1.5000    0.0000 C   0  0  0  0  0  0  0  0  0  0  0  0
   -1.1730    2.4350    0.0000 N   0  0  0  0  0  0  0  0  0  0  0  0
   -2.6350    2.1020    0.0000 C   0  0  0  0  0  0  0  0  0  0  0  0
   -3.5700    3.2740    0.0000 O   0  0  0  0  0  0  0  0  0  0  0  0
   -3.2860    0.7500    0.0000 C   0  0  0  0  0  0  0  0  0  0  0  0
   -4.7820    0.8620    0.0000 C   0  0  0  0  0  0  0  0  0  0  0  0
   -5.6270   -0.3770    0.0000 C   0  0  0  0  0  0  0  0  0  0  0  0
   -4.9760   -1.7290    0.0000 C   0  0  0  0  0  0  0  0  0  0  0  0
   -3.4800   -1.8410    0.0000 N   0  0  0  0  0  0  0  0  0  0  0  0
   -2.6350   -0.6020    0.0000 C   0  0  0  0  0  0  0  0  0  0  0  0
   -1.1730   -0.9350    0.0000 N   0  0  3  0  0  0  0  0  0  0  0  0
   -0.8390   -2.3980    0.0000 C   0  0  0  0  0  0  0  0  0  0  0  0
   -1.2810   -3.8310    0.0000 C   0  0  0  0  0  0  0  0  0  0  0  0
    0.1810   -3.4970    0.0000 C   0  0  0  0  0  0  0  0  0  0  0  0
  1  2  1  0  0  0  0
  2  3  1  0  0  0  0
  2  7  2  0  0  0  0
  3  4  2  0  0  0  0
  4  5  1  0  0  0  0
  5  6  2  0  0  0  0
  6  7  1  0  0  0  0
  6 17  1  0  0  0  0
  7  8  1  0  0  0  0
  8  9  1  0  0  0  0
  9 10  2  0  0  0  0
  9 11  1  0  0  0  0
 11 12  1  0  0  0  0
 11 16  2  0  0  0  0
 12 13  2  0  0  0  0
 13 14  1  0  0  0  0
 14 15  2  0  0  0  0
 15 16  1  0  0  0  0
 16 17  1  0  0  0  0
 17 18  1  0  0  0  0
 18 19  1  0  0  0  0
 18 20  1  0  0  0  0
 19 20  1  0  0  0  0
M  END
>  <n>
465

>  <SMILES>
O=C1Nc2c(nccc2C)N(c2ncccc12)C1CC1

>  <IC50>
294.6

>  <Class>
0

>  <NAME>
NEVIRAPINE

>  <INCHI_KEY>
NQDJXKOVJZTUJA-UHFFFAOYSA-N

>  <Reference>
Mitigating the inhibition of human Bile Salt Export Pump by drugs_ opportunities provided by physicochemical property modulation,  in-silico modeling and structural modification_SI

$$$$
NICARDIPINE
  MOE2013           2D

 35 37  0  0  1  0  0  0  0  0999 V2000
    9.0930   -9.7500    0.0000 C   0  0  0  0  0  0  0  0  0  0  0  0
    7.7940   -9.0000    0.0000 C   0  0  0  0  0  0  0  0  0  0  0  0
    7.7940   -7.5000    0.0000 C   0  0  0  0  0  0  0  0  0  0  0  0
    6.4950   -6.7500    0.0000 C   0  0  3  0  0  0  0  0  0  0  0  0
    5.1960   -7.5000    0.0000 C   0  0  0  0  0  0  0  0  0  0  0  0
    5.1960   -9.0000    0.0000 C   0  0  0  0  0  0  0  0  0  0  0  0
    6.4950   -9.7500    0.0000 N   0  0  0  0  0  0  0  0  0  0  0  0
    3.8970   -9.7500    0.0000 C   0  0  0  0  0  0  0  0  0  0  0  0
    3.8970   -6.7500    0.0000 C   0  0  0  0  0  0  0  0  0  0  0  0
    2.5980   -7.5000    0.0000 O   0  0  0  0  0  0  0  0  0  0  0  0
    3.8970   -5.2500    0.0000 O   0  0  0  0  0  0  0  0  0  0  0  0
    2.5980   -4.5000    0.0000 C   0  0  0  0  0  0  0  0  0  0  0  0
    2.5980   -3.0000    0.0000 C   0  0  0  0  0  0  0  0  0  0  0  0
    1.2990   -2.2500    0.0000 N   0  0  3  0  0  0  0  0  0  0  0  0
    0.0000   -3.0000    0.0000 C   0  0  0  0  0  0  0  0  0  0  0  0
    1.2990   -0.7500    0.0000 C   0  0  0  0  0  0  0  0  0  0  0  0
    0.0000    0.0000    0.0000 C   0  0  0  0  0  0  0  0  0  0  0  0
    0.0000    1.5000    0.0000 C   0  0  0  0  0  0  0  0  0  0  0  0
   -1.2990    2.2500    0.0000 C   0  0  0  0  0  0  0  0  0  0  0  0
   -2.5980    1.5000    0.0000 C   0  0  0  0  0  0  0  0  0  0  0  0
   -2.5980    0.0000    0.0000 C   0  0  0  0  0  0  0  0  0  0  0  0
   -1.2990   -0.7500    0.0000 C   0  0  0  0  0  0  0  0  0  0  0  0
    6.4950   -5.2500    0.0000 C   0  0  0  0  0  0  0  0  0  0  0  0
    7.7940   -4.5000    0.0000 C   0  0  0  0  0  0  0  0  0  0  0  0
    7.7940   -3.0000    0.0000 C   0  0  0  0  0  0  0  0  0  0  0  0
    6.4950   -2.2500    0.0000 C   0  0  0  0  0  0  0  0  0  0  0  0
    5.1960   -3.0000    0.0000 C   0  0  0  0  0  0  0  0  0  0  0  0
    5.1960   -4.5000    0.0000 C   0  0  0  0  0  0  0  0  0  0  0  0
    3.8970   -2.2500    0.0000 N   0  3  0  0  0  0  0  0  0  0  0  0
    3.8970   -0.7500    0.0000 O   0  0  0  0  0  0  0  0  0  0  0  0
    2.5980   -3.0000    0.0000 O   0  5  0  0  0  0  0  0  0  0  0  0
    9.0930   -6.7500    0.0000 C   0  0  0  0  0  0  0  0  0  0  0  0
    9.0930   -5.2500    0.0000 O   0  0  0  0  0  0  0  0  0  0  0  0
   10.3920   -7.5000    0.0000 O   0  0  0  0  0  0  0  0  0  0  0  0
   11.6910   -6.7500    0.0000 C   0  0  0  0  0  0  0  0  0  0  0  0
  1  2  1  0  0  0  0
  2  3  2  0  0  0  0
  2  7  1  0  0  0  0
  3  4  1  0  0  0  0
  3 32  1  0  0  0  0
  4  5  1  0  0  0  0
  4 23  1  0  0  0  0
  5  6  2  0  0  0  0
  5  9  1  0  0  0  0
  6  7  1  0  0  0  0
  6  8  1  0  0  0  0
  9 10  2  0  0  0  0
  9 11  1  0  0  0  0
 11 12  1  0  0  0  0
 12 13  1  0  0  0  0
 13 14  1  0  0  0  0
 14 15  1  0  0  0  0
 14 16  1  0  0  0  0
 16 17  1  0  0  0  0
 17 18  1  0  0  0  0
 17 22  2  0  0  0  0
 18 19  2  0  0  0  0
 19 20  1  0  0  0  0
 20 21  2  0  0  0  0
 21 22  1  0  0  0  0
 23 24  1  0  0  0  0
 23 28  2  0  0  0  0
 24 25  2  0  0  0  0
 25 26  1  0  0  0  0
 26 27  2  0  0  0  0
 27 28  1  0  0  0  0
 27 29  1  0  0  0  0
 29 30  2  0  0  0  0
 29 31  1  0  0  0  0
 32 33  2  0  0  0  0
 32 34  1  0  0  0  0
 34 35  1  0  0  0  0
M  CHG  1  29   1
M  CHG  1  31  -1
M  END
>  <n>
466

>  <SMILES>
O(C(=O)C=1C(C(C(OC)=O)=C(NC=1C)C)c1cc([N+](=O)[O-])ccc1)CCN(Cc1ccccc1)C

>  <IC50>
<10

>  <Class>
1

>  <NAME>
NICARDIPINE

>  <INCHI_KEY>
ZBBHBTPTTSWHBA-UHFFFAOYSA-N

>  <Reference>
Mitigating, Interference

$$$$
NILVADIPINE
  MOE2013           2D

 28 29  0  0  1  0  0  0  0  0999 V2000
    5.1960    0.0000    0.0000 C   0  0  0  0  0  0  0  0  0  0  0  0
    3.8970   -0.7500    0.0000 C   0  0  0  0  0  0  0  0  0  0  0  0
    2.5980    0.0000    0.0000 C   0  0  0  0  0  0  0  0  0  0  0  0
    1.2990   -0.7500    0.0000 C   0  0  3  0  0  0  0  0  0  0  0  0
    1.2990   -2.2500    0.0000 C   0  0  0  0  0  0  0  0  0  0  0  0
    2.5980   -3.0000    0.0000 C   0  0  0  0  0  0  0  0  0  0  0  0
    3.8970   -2.2500    0.0000 N   0  0  0  0  0  0  0  0  0  0  0  0
    2.5980   -4.5000    0.0000 C   0  0  0  0  0  0  0  0  0  0  0  0
    2.5980   -6.0000    0.0000 N   0  0  0  0  0  0  0  0  0  0  0  0
    0.0000   -3.0000    0.0000 C   0  0  0  0  0  0  0  0  0  0  0  0
   -1.2990   -2.2500    0.0000 O   0  0  0  0  0  0  0  0  0  0  0  0
    0.0000   -4.5000    0.0000 O   0  0  0  0  0  0  0  0  0  0  0  0
   -1.2990   -5.2500    0.0000 C   0  0  0  0  0  0  0  0  0  0  0  0
    0.0000    0.0000    0.0000 C   0  0  0  0  0  0  0  0  0  0  0  0
    0.0000    1.5000    0.0000 C   0  0  0  0  0  0  0  0  0  0  0  0
   -1.2990    2.2500    0.0000 C   0  0  0  0  0  0  0  0  0  0  0  0
   -2.5980    1.5000    0.0000 C   0  0  0  0  0  0  0  0  0  0  0  0
   -2.5980    0.0000    0.0000 C   0  0  0  0  0  0  0  0  0  0  0  0
   -1.2990   -0.7500    0.0000 C   0  0  0  0  0  0  0  0  0  0  0  0
   -3.8970   -0.7500    0.0000 N   0  3  0  0  0  0  0  0  0  0  0  0
   -5.1960    0.0000    0.0000 O   0  0  0  0  0  0  0  0  0  0  0  0
   -3.8970   -2.2500    0.0000 O   0  5  0  0  0  0  0  0  0  0  0  0
    2.5980    1.5000    0.0000 C   0  0  0  0  0  0  0  0  0  0  0  0
    1.2990    2.2500    0.0000 O   0  0  0  0  0  0  0  0  0  0  0  0
    3.8970    2.2500    0.0000 O   0  0  0  0  0  0  0  0  0  0  0  0
    3.8970    3.7500    0.0000 C   0  0  0  0  0  0  0  0  0  0  0  0
    5.1960    4.5000    0.0000 C   0  0  0  0  0  0  0  0  0  0  0  0
    2.5980    4.5000    0.0000 C   0  0  0  0  0  0  0  0  0  0  0  0
  1  2  1  0  0  0  0
  2  3  2  0  0  0  0
  2  7  1  0  0  0  0
  3  4  1  0  0  0  0
  3 23  1  0  0  0  0
  4  5  1  0  0  0  0
  4 14  1  0  0  0  0
  5  6  2  0  0  0  0
  5 10  1  0  0  0  0
  6  7  1  0  0  0  0
  6  8  1  0  0  0  0
  8  9  3  0  0  0  0
 10 11  2  0  0  0  0
 10 12  1  0  0  0  0
 12 13  1  0  0  0  0
 14 15  1  0  0  0  0
 14 19  2  0  0  0  0
 15 16  2  0  0  0  0
 16 17  1  0  0  0  0
 17 18  2  0  0  0  0
 18 19  1  0  0  0  0
 18 20  1  0  0  0  0
 20 21  2  0  0  0  0
 20 22  1  0  0  0  0
 23 24  2  0  0  0  0
 23 25  1  0  0  0  0
 25 26  1  0  0  0  0
 26 27  1  0  0  0  0
 26 28  1  0  0  0  0
M  CHG  1  20   1
M  CHG  1  22  -1
M  END
>  <n>
468

>  <SMILES>
O(C(=O)C=1C(C(C(OC)=O)=C(NC=1C)C#N)c1cc([N+](=O)[O-])ccc1)C(C)C

>  <IC50>
<10

>  <Class>
1

>  <NAME>
NILVADIPINE

>  <INCHI_KEY>
FAIIFDPAEUKBEP-UHFFFAOYSA-N

>  <Reference>
Mitigating the inhibition of human Bile Salt Export Pump by drugs_ opportunities provided by physicochemical property modulation,  in-silico modeling and structural modification_SI

$$$$
Nitrofurantoin
  MOE2013           2D

 17 18  0  0  0  0  0  0  0  0999 V2000
    0.0000    0.0000    0.0000 C   0  0  0  0  0  0  0  0  0  0  0  0
    0.0000    1.5000    0.0000 C   0  0  0  0  0  0  0  0  0  0  0  0
   -1.4270    1.9640    0.0000 C   0  0  0  0  0  0  0  0  0  0  0  0
   -2.3080    0.7500    0.0000 O   0  0  0  0  0  0  0  0  0  0  0  0
   -1.4270   -0.4640    0.0000 C   0  0  0  0  0  0  0  0  0  0  0  0
   -1.8900   -1.8900    0.0000 C   0  0  0  0  0  0  0  0  0  0  0  0
   -0.8860   -3.0050    0.0000 N   0  0  0  0  0  0  0  0  0  0  0  0
   -1.3500   -4.4310    0.0000 N   0  0  0  0  0  0  0  0  0  0  0  0
   -2.7760   -4.8950    0.0000 C   0  0  0  0  0  0  0  0  0  0  0  0
   -2.7760   -6.3950    0.0000 C   0  0  0  0  0  0  0  0  0  0  0  0
   -3.9900   -7.2770    0.0000 O   0  0  0  0  0  0  0  0  0  0  0  0
   -1.3500   -6.8580    0.0000 N   0  0  0  0  0  0  0  0  0  0  0  0
   -0.4680   -5.6450    0.0000 C   0  0  0  0  0  0  0  0  0  0  0  0
    1.0320   -5.6450    0.0000 O   0  0  0  0  0  0  0  0  0  0  0  0
   -1.8900    3.3900    0.0000 N   0  3  0  0  0  0  0  0  0  0  0  0
   -0.8860    4.5050    0.0000 O   0  0  0  0  0  0  0  0  0  0  0  0
   -3.3570    3.7020    0.0000 O   0  5  0  0  0  0  0  0  0  0  0  0
  1  2  1  0  0  0  0
  1  5  2  0  0  0  0
  2  3  2  0  0  0  0
  3  4  1  0  0  0  0
  3 15  1  0  0  0  0
  4  5  1  0  0  0  0
  5  6  1  0  0  0  0
  6  7  2  0  0  0  0
  7  8  1  0  0  0  0
  8  9  1  0  0  0  0
  8 13  1  0  0  0  0
  9 10  1  0  0  0  0
 10 11  2  0  0  0  0
 10 12  1  0  0  0  0
 12 13  1  0  0  0  0
 13 14  2  0  0  0  0
 15 16  2  0  0  0  0
 15 17  1  0  0  0  0
M  CHG  1  15   1
M  CHG  1  17  -1
M  END
>  <n>
201

>  <SMILES>
o1c(ccc1[N+](=O)[O-])C=NN1CC(=O)NC1=O

>  <IC50>
>1000

>  <Class>
0

>  <NAME>
NITROFURANTOIN

>  <INCHI_KEY>
NXFQHRVNIOXGAQ-UHFFFAOYSA-N

>  <Reference>
Mitigating, Dawson

$$$$
NOMIFENSIN
  MOE2013           2D

 18 20  0  0  1  0  0  0  0  0999 V2000
    3.8970   -0.7500    0.0000 C   0  0  0  0  0  0  0  0  0  0  0  0
    2.5980    0.0000    0.0000 N   0  0  3  0  0  0  0  0  0  0  0  0
    1.2990   -0.7500    0.0000 C   0  0  0  0  0  0  0  0  0  0  0  0
    0.0000    0.0000    0.0000 C   0  0  0  0  0  0  0  0  0  0  0  0
    0.0000    1.5000    0.0000 C   0  0  0  0  0  0  0  0  0  0  0  0
   -1.2990    2.2500    0.0000 C   0  0  0  0  0  0  0  0  0  0  0  0
   -2.5980    1.5000    0.0000 C   0  0  0  0  0  0  0  0  0  0  0  0
   -2.5980    0.0000    0.0000 C   0  0  0  0  0  0  0  0  0  0  0  0
   -1.2990   -0.7500    0.0000 C   0  0  0  0  0  0  0  0  0  0  0  0
   -1.2990   -2.2500    0.0000 N   0  0  0  0  0  0  0  0  0  0  0  0
    1.2990    2.2500    0.0000 C   0  0  3  0  0  0  0  0  0  0  0  0
    2.5980    1.5000    0.0000 C   0  0  0  0  0  0  0  0  0  0  0  0
    1.2990    3.7500    0.0000 C   0  0  0  0  0  0  0  0  0  0  0  0
    2.5980    4.5000    0.0000 C   0  0  0  0  0  0  0  0  0  0  0  0
    2.5980    6.0000    0.0000 C   0  0  0  0  0  0  0  0  0  0  0  0
    1.2990    6.7500    0.0000 C   0  0  0  0  0  0  0  0  0  0  0  0
    0.0000    6.0000    0.0000 C   0  0  0  0  0  0  0  0  0  0  0  0
    0.0000    4.5000    0.0000 C   0  0  0  0  0  0  0  0  0  0  0  0
  1  2  1  0  0  0  0
  2  3  1  0  0  0  0
  2 12  1  0  0  0  0
  3  4  1  0  0  0  0
  4  5  1  0  0  0  0
  4  9  2  0  0  0  0
  5  6  2  0  0  0  0
  5 11  1  0  0  0  0
  6  7  1  0  0  0  0
  7  8  2  0  0  0  0
  8  9  1  0  0  0  0
  9 10  1  0  0  0  0
 11 12  1  0  0  0  0
 11 13  1  0  0  0  0
 13 14  1  0  0  0  0
 13 18  2  0  0  0  0
 14 15  2  0  0  0  0
 15 16  1  0  0  0  0
 16 17  2  0  0  0  0
 17 18  1  0  0  0  0
M  END
>  <n>
469

>  <SMILES>
Nc1c2c(ccc1)C(CN(C2)C)c1ccccc1

>  <IC50>
>1000

>  <Class>
0

>  <NAME>
NOMIFENSIN

>  <INCHI_KEY>
XXPANQJNYNUNES-UHFFFAOYSA-N

>  <Reference>
Mitigating, Dawson

$$$$
OLANZAPINE
  MOE2013           2D

 22 25  0  0  0  0  0  0  0  0999 V2000
    3.8080    0.7500    0.0000 C   0  0  0  0  0  0  0  0  0  0  0  0
    2.3080    0.7500    0.0000 C   0  0  0  0  0  0  0  0  0  0  0  0
    1.4270   -0.4640    0.0000 C   0  0  0  0  0  0  0  0  0  0  0  0
    0.0000    0.0000    0.0000 C   0  0  0  0  0  0  0  0  0  0  0  0
    0.0000    1.5000    0.0000 C   0  0  0  0  0  0  0  0  0  0  0  0
    1.4270    1.9640    0.0000 S   0  0  0  0  0  0  0  0  0  0  0  0
   -1.1730    2.4350    0.0000 N   0  0  0  0  0  0  0  0  0  0  0  0
   -2.6350    2.1020    0.0000 C   0  0  0  0  0  0  0  0  0  0  0  0
   -3.4800    3.3410    0.0000 C   0  0  0  0  0  0  0  0  0  0  0  0
   -4.9760    3.2290    0.0000 C   0  0  0  0  0  0  0  0  0  0  0  0
   -5.6270    1.8770    0.0000 C   0  0  0  0  0  0  0  0  0  0  0  0
   -4.7820    0.6380    0.0000 C   0  0  0  0  0  0  0  0  0  0  0  0
   -3.2860    0.7500    0.0000 C   0  0  0  0  0  0  0  0  0  0  0  0
   -2.6350   -0.6020    0.0000 N   0  0  0  0  0  0  0  0  0  0  0  0
   -1.1730   -0.9350    0.0000 C   0  0  0  0  0  0  0  0  0  0  0  0
   -0.8390   -2.3980    0.0000 N   0  0  0  0  0  0  0  0  0  0  0  0
   -1.9380   -3.4180    0.0000 C   0  0  0  0  0  0  0  0  0  0  0  0
   -1.6050   -4.8800    0.0000 C   0  0  0  0  0  0  0  0  0  0  0  0
   -0.1710   -5.3220    0.0000 N   0  0  0  0  0  0  0  0  0  0  0  0
    0.9280   -4.3020    0.0000 C   0  0  0  0  0  0  0  0  0  0  0  0
    0.5940   -2.8400    0.0000 C   0  0  0  0  0  0  0  0  0  0  0  0
    0.1620   -6.7850    0.0000 C   0  0  0  0  0  0  0  0  0  0  0  0
  1  2  1  0  0  0  0
  2  3  2  0  0  0  0
  2  6  1  0  0  0  0
  3  4  1  0  0  0  0
  4  5  2  0  0  0  0
  4 15  1  0  0  0  0
  5  6  1  0  0  0  0
  5  7  1  0  0  0  0
  7  8  1  0  0  0  0
  8  9  1  0  0  0  0
  8 13  2  0  0  0  0
  9 10  2  0  0  0  0
 10 11  1  0  0  0  0
 11 12  2  0  0  0  0
 12 13  1  0  0  0  0
 13 14  1  0  0  0  0
 14 15  2  0  0  0  0
 15 16  1  0  0  0  0
 16 17  1  0  0  0  0
 16 21  1  0  0  0  0
 17 18  1  0  0  0  0
 18 19  1  0  0  0  0
 19 20  1  0  0  0  0
 19 22  1  0  0  0  0
 20 21  1  0  0  0  0
M  END
>  <n>
471

>  <SMILES>
s1c2Nc3c(N=C(N4CCN(CC4)C)c2cc1C)cccc3

>  <IC50>
54.57

>  <Class>
0

>  <NAME>
OLANZAPINE

>  <INCHI_KEY>
KVWDHTXUZHCGIO-UHFFFAOYSA-N

>  <Reference>
Mitigating the inhibition of human Bile Salt Export Pump by drugs_ opportunities provided by physicochemical property modulation,  in-silico modeling and structural modification_SI

$$$$
ORPHENADRINE
  MOE2013           2D

 20 21  0  0  1  0  0  0  0  0999 V2000
    3.8970   -2.2500    0.0000 C   0  0  0  0  0  0  0  0  0  0  0  0
    3.8970   -0.7500    0.0000 C   0  0  0  0  0  0  0  0  0  0  0  0
    5.1960    0.0000    0.0000 C   0  0  0  0  0  0  0  0  0  0  0  0
    5.1960    1.5000    0.0000 C   0  0  0  0  0  0  0  0  0  0  0  0
    3.8970    2.2500    0.0000 C   0  0  0  0  0  0  0  0  0  0  0  0
    2.5980    1.5000    0.0000 C   0  0  0  0  0  0  0  0  0  0  0  0
    2.5980    0.0000    0.0000 C   0  0  0  0  0  0  0  0  0  0  0  0
    1.2990   -0.7500    0.0000 C   0  0  3  0  0  0  0  0  0  0  0  0
    0.0000    0.0000    0.0000 C   0  0  0  0  0  0  0  0  0  0  0  0
    0.0000    1.5000    0.0000 C   0  0  0  0  0  0  0  0  0  0  0  0
   -1.2990    2.2500    0.0000 C   0  0  0  0  0  0  0  0  0  0  0  0
   -2.5980    1.5000    0.0000 C   0  0  0  0  0  0  0  0  0  0  0  0
   -2.5980    0.0000    0.0000 C   0  0  0  0  0  0  0  0  0  0  0  0
   -1.2990   -0.7500    0.0000 C   0  0  0  0  0  0  0  0  0  0  0  0
    1.2990   -2.2500    0.0000 O   0  0  0  0  0  0  0  0  0  0  0  0
    2.5980   -3.0000    0.0000 C   0  0  0  0  0  0  0  0  0  0  0  0
    2.5980   -4.5000    0.0000 C   0  0  0  0  0  0  0  0  0  0  0  0
    3.8970   -5.2500    0.0000 N   0  0  0  0  0  0  0  0  0  0  0  0
    3.8970   -6.7500    0.0000 C   0  0  0  0  0  0  0  0  0  0  0  0
    5.1960   -4.5000    0.0000 C   0  0  0  0  0  0  0  0  0  0  0  0
  1  2  1  0  0  0  0
  2  3  1  0  0  0  0
  2  7  2  0  0  0  0
  3  4  2  0  0  0  0
  4  5  1  0  0  0  0
  5  6  2  0  0  0  0
  6  7  1  0  0  0  0
  7  8  1  0  0  0  0
  8  9  1  0  0  0  0
  8 15  1  0  0  0  0
  9 10  1  0  0  0  0
  9 14  2  0  0  0  0
 10 11  2  0  0  0  0
 11 12  1  0  0  0  0
 12 13  2  0  0  0  0
 13 14  1  0  0  0  0
 15 16  1  0  0  0  0
 16 17  1  0  0  0  0
 17 18  1  0  0  0  0
 18 19  1  0  0  0  0
 18 20  1  0  0  0  0
M  END
>  <n>
472

>  <SMILES>
O(C(c1ccccc1C)c1ccccc1)CCN(C)C

>  <IC50>
>1000

>  <Class>
0

>  <NAME>
ORPHENADRINE

>  <INCHI_KEY>
QVYRGXJJSLMXQH-UHFFFAOYSA-N

>  <Reference>
Mitigating the inhibition of human Bile Salt Export Pump by drugs_ opportunities provided by physicochemical property modulation,  in-silico modeling and structural modification_SI

$$$$
OXEDRINE
  MOE2013           2D

 12 12  0  0  1  0  0  0  0  0999 V2000
    2.5980   -4.5000    0.0000 C   0  0  0  0  0  0  0  0  0  0  0  0
    2.5980   -3.0000    0.0000 N   0  0  0  0  0  0  0  0  0  0  0  0
    1.2990   -2.2500    0.0000 C   0  0  0  0  0  0  0  0  0  0  0  0
    1.2990   -0.7500    0.0000 C   0  0  3  0  0  0  0  0  0  0  0  0
    0.0000    0.0000    0.0000 C   0  0  0  0  0  0  0  0  0  0  0  0
    0.0000    1.5000    0.0000 C   0  0  0  0  0  0  0  0  0  0  0  0
   -1.2990    2.2500    0.0000 C   0  0  0  0  0  0  0  0  0  0  0  0
   -2.5980    1.5000    0.0000 C   0  0  0  0  0  0  0  0  0  0  0  0
   -2.5980    0.0000    0.0000 C   0  0  0  0  0  0  0  0  0  0  0  0
   -1.2990   -0.7500    0.0000 C   0  0  0  0  0  0  0  0  0  0  0  0
   -3.8970    2.2500    0.0000 O   0  0  0  0  0  0  0  0  0  0  0  0
    2.5980    0.0000    0.0000 O   0  0  0  0  0  0  0  0  0  0  0  0
  1  2  1  0  0  0  0
  2  3  1  0  0  0  0
  3  4  1  0  0  0  0
  4  5  1  0  0  0  0
  4 12  1  0  0  0  0
  5  6  1  0  0  0  0
  5 10  2  0  0  0  0
  6  7  2  0  0  0  0
  7  8  1  0  0  0  0
  8  9  2  0  0  0  0
  8 11  1  0  0  0  0
  9 10  1  0  0  0  0
M  END
>  <n>
473

>  <SMILES>
Oc1ccc(cc1)C(O)CNC

>  <IC50>
>1000

>  <Class>
0

>  <NAME>
OXEDRINE

>  <INCHI_KEY>
YRCWQPVGYLYSOX-UHFFFAOYSA-N

>  <Reference>
Mitigating the inhibition of human Bile Salt Export Pump by drugs_ opportunities provided by physicochemical property modulation,  in-silico modeling and structural modification_SI

$$$$
OXETHAZAINE
  MOE2013           2D

 34 35  0  0  0  0  0  0  0  0999 V2000
   -0.1780   -1.9900    0.0000 C   0  0  0  0  0  0  0  0  0  0  0  0
    1.2990   -2.2500    0.0000 C   0  0  0  0  0  0  0  0  0  0  0  0
    0.7860   -3.6600    0.0000 C   0  0  0  0  0  0  0  0  0  0  0  0
    1.2990   -0.7500    0.0000 C   0  0  0  0  0  0  0  0  0  0  0  0
    0.0000    0.0000    0.0000 C   0  0  0  0  0  0  0  0  0  0  0  0
    0.0000    1.5000    0.0000 C   0  0  0  0  0  0  0  0  0  0  0  0
   -1.2990    2.2500    0.0000 C   0  0  0  0  0  0  0  0  0  0  0  0
   -2.5980    1.5000    0.0000 C   0  0  0  0  0  0  0  0  0  0  0  0
   -2.5980    0.0000    0.0000 C   0  0  0  0  0  0  0  0  0  0  0  0
   -1.2990   -0.7500    0.0000 C   0  0  0  0  0  0  0  0  0  0  0  0
    2.5980   -3.0000    0.0000 N   0  0  0  0  0  0  0  0  0  0  0  0
    3.8970   -2.2500    0.0000 C   0  0  0  0  0  0  0  0  0  0  0  0
    2.5980   -4.5000    0.0000 C   0  0  0  0  0  0  0  0  0  0  0  0
    1.2990   -5.2500    0.0000 O   0  0  0  0  0  0  0  0  0  0  0  0
    3.8970   -5.2500    0.0000 C   0  0  0  0  0  0  0  0  0  0  0  0
    3.8970   -6.7500    0.0000 N   0  0  0  0  0  0  0  0  0  0  0  0
    2.5980   -7.5000    0.0000 C   0  0  0  0  0  0  0  0  0  0  0  0
    2.5980   -9.0000    0.0000 C   0  0  0  0  0  0  0  0  0  0  0  0
    3.8970   -9.7500    0.0000 O   0  0  0  0  0  0  0  0  0  0  0  0
    5.1960   -7.5000    0.0000 C   0  0  0  0  0  0  0  0  0  0  0  0
    5.1960   -9.0000    0.0000 C   0  0  0  0  0  0  0  0  0  0  0  0
    3.8970   -9.7500    0.0000 O   0  0  0  0  0  0  0  0  0  0  0  0
    6.4950   -9.7500    0.0000 N   0  0  0  0  0  0  0  0  0  0  0  0
    7.7940   -9.0000    0.0000 C   0  0  0  0  0  0  0  0  0  0  0  0
    6.4950  -11.2500    0.0000 C   0  0  0  0  0  0  0  0  0  0  0  0
    5.0180  -10.9900    0.0000 C   0  0  0  0  0  0  0  0  0  0  0  0
    5.9820  -12.6600    0.0000 C   0  0  0  0  0  0  0  0  0  0  0  0
    7.7940  -12.0000    0.0000 C   0  0  0  0  0  0  0  0  0  0  0  0
    7.7940  -13.5000    0.0000 C   0  0  0  0  0  0  0  0  0  0  0  0
    6.4950  -14.2500    0.0000 C   0  0  0  0  0  0  0  0  0  0  0  0
    6.4950  -15.7500    0.0000 C   0  0  0  0  0  0  0  0  0  0  0  0
    7.7940  -16.5000    0.0000 C   0  0  0  0  0  0  0  0  0  0  0  0
    9.0930  -15.7500    0.0000 C   0  0  0  0  0  0  0  0  0  0  0  0
    9.0930  -14.2500    0.0000 C   0  0  0  0  0  0  0  0  0  0  0  0
  1  2  1  0  0  0  0
  2  3  1  0  0  0  0
  2  4  1  0  0  0  0
  2 11  1  0  0  0  0
  4  5  1  0  0  0  0
  5  6  1  0  0  0  0
  5 10  2  0  0  0  0
  6  7  2  0  0  0  0
  7  8  1  0  0  0  0
  8  9  2  0  0  0  0
  9 10  1  0  0  0  0
 11 12  1  0  0  0  0
 11 13  1  0  0  0  0
 13 14  2  0  0  0  0
 13 15  1  0  0  0  0
 15 16  1  0  0  0  0
 16 17  1  0  0  0  0
 16 20  1  0  0  0  0
 17 18  1  0  0  0  0
 18 19  1  0  0  0  0
 20 21  1  0  0  0  0
 21 22  2  0  0  0  0
 21 23  1  0  0  0  0
 23 24  1  0  0  0  0
 23 25  1  0  0  0  0
 25 26  1  0  0  0  0
 25 27  1  0  0  0  0
 25 28  1  0  0  0  0
 28 29  1  0  0  0  0
 29 30  1  0  0  0  0
 29 34  2  0  0  0  0
 30 31  2  0  0  0  0
 31 32  1  0  0  0  0
 32 33  2  0  0  0  0
 33 34  1  0  0  0  0
M  END
>  <n>
474

>  <SMILES>
OCCN(CC(=O)N(C(Cc1ccccc1)(C)C)C)CC(=O)N(C(Cc1ccccc1)(C)C)C

>  <IC50>
<10

>  <Class>
1

>  <NAME>
OXETHAZAINE

>  <INCHI_KEY>
FTLDJPRFCGDUFH-UHFFFAOYSA-N

>  <Reference>
Mitigating the inhibition of human Bile Salt Export Pump by drugs_ opportunities provided by physicochemical property modulation,  in-silico modeling and structural modification_SI

$$$$
OXIBENDAZOLE
  MOE2013           2D

 18 19  0  0  0  0  0  0  0  0999 V2000
    7.7940    1.5000    0.0000 C   0  0  0  0  0  0  0  0  0  0  0  0
    6.4950    2.2500    0.0000 C   0  0  0  0  0  0  0  0  0  0  0  0
    5.1960    1.5000    0.0000 C   0  0  0  0  0  0  0  0  0  0  0  0
    3.8970    2.2500    0.0000 O   0  0  0  0  0  0  0  0  0  0  0  0
    2.5980    1.5000    0.0000 C   0  0  0  0  0  0  0  0  0  0  0  0
    2.5980    0.0000    0.0000 C   0  0  0  0  0  0  0  0  0  0  0  0
    1.2990   -0.7500    0.0000 C   0  0  0  0  0  0  0  0  0  0  0  0
    0.0000    0.0000    0.0000 C   0  0  0  0  0  0  0  0  0  0  0  0
    0.0000    1.5000    0.0000 C   0  0  0  0  0  0  0  0  0  0  0  0
    1.2990    2.2500    0.0000 C   0  0  0  0  0  0  0  0  0  0  0  0
   -1.4270    1.9640    0.0000 N   0  0  0  0  0  0  0  0  0  0  0  0
   -2.3080    0.7500    0.0000 C   0  0  0  0  0  0  0  0  0  0  0  0
   -1.4270   -0.4640    0.0000 N   0  0  0  0  0  0  0  0  0  0  0  0
   -3.8080    0.7500    0.0000 N   0  0  0  0  0  0  0  0  0  0  0  0
   -4.5580   -0.5490    0.0000 C   0  0  0  0  0  0  0  0  0  0  0  0
   -3.8080   -1.8480    0.0000 O   0  0  0  0  0  0  0  0  0  0  0  0
   -6.0580   -0.5490    0.0000 O   0  0  0  0  0  0  0  0  0  0  0  0
   -6.8080   -1.8480    0.0000 C   0  0  0  0  0  0  0  0  0  0  0  0
  1  2  1  0  0  0  0
  2  3  1  0  0  0  0
  3  4  1  0  0  0  0
  4  5  1  0  0  0  0
  5  6  1  0  0  0  0
  5 10  2  0  0  0  0
  6  7  2  0  0  0  0
  7  8  1  0  0  0  0
  8  9  2  0  0  0  0
  8 13  1  0  0  0  0
  9 10  1  0  0  0  0
  9 11  1  0  0  0  0
 11 12  2  0  0  0  0
 12 13  1  0  0  0  0
 12 14  1  0  0  0  0
 14 15  1  0  0  0  0
 15 16  2  0  0  0  0
 15 17  1  0  0  0  0
 17 18  1  0  0  0  0
M  END
>  <n>
475

>  <SMILES>
O(CCC)c1cc2nc([nH]c2cc1)NC(OC)=O

>  <IC50>
>1000

>  <Class>
0

>  <NAME>
OXIBENDAZOLE

>  <INCHI_KEY>
RAOCRURYZCVHMG-UHFFFAOYSA-N

>  <Reference>
Mitigating the inhibition of human Bile Salt Export Pump by drugs_ opportunities provided by physicochemical property modulation,  in-silico modeling and structural modification_SI

$$$$
OXPRENOLOL
  MOE2013           2D

 19 19  0  0  1  0  0  0  0  0999 V2000
    9.0930   -0.7500    0.0000 C   0  0  0  0  0  0  0  0  0  0  0  0
    7.7940    0.0000    0.0000 C   0  0  0  0  0  0  0  0  0  0  0  0
    7.7940    1.5000    0.0000 C   0  0  0  0  0  0  0  0  0  0  0  0
    6.4950   -0.7500    0.0000 N   0  0  0  0  0  0  0  0  0  0  0  0
    5.1960    0.0000    0.0000 C   0  0  0  0  0  0  0  0  0  0  0  0
    3.8970   -0.7500    0.0000 C   0  0  3  0  0  0  0  0  0  0  0  0
    2.5980    0.0000    0.0000 C   0  0  0  0  0  0  0  0  0  0  0  0
    1.2990   -0.7500    0.0000 O   0  0  0  0  0  0  0  0  0  0  0  0
    0.0000    0.0000    0.0000 C   0  0  0  0  0  0  0  0  0  0  0  0
    0.0000    1.5000    0.0000 C   0  0  0  0  0  0  0  0  0  0  0  0
   -1.2990    2.2500    0.0000 C   0  0  0  0  0  0  0  0  0  0  0  0
   -2.5980    1.5000    0.0000 C   0  0  0  0  0  0  0  0  0  0  0  0
   -2.5980    0.0000    0.0000 C   0  0  0  0  0  0  0  0  0  0  0  0
   -1.2990   -0.7500    0.0000 C   0  0  0  0  0  0  0  0  0  0  0  0
   -1.2990   -2.2500    0.0000 O   0  0  0  0  0  0  0  0  0  0  0  0
   -2.5980   -3.0000    0.0000 C   0  0  0  0  0  0  0  0  0  0  0  0
   -2.5980   -4.5000    0.0000 C   0  0  0  0  0  0  0  0  0  0  0  0
   -3.8970   -5.2500    0.0000 C   0  0  0  0  0  0  0  0  0  0  0  0
    3.8970   -2.2500    0.0000 O   0  0  0  0  0  0  0  0  0  0  0  0
  1  2  1  0  0  0  0
  2  3  1  0  0  0  0
  2  4  1  0  0  0  0
  4  5  1  0  0  0  0
  5  6  1  0  0  0  0
  6  7  1  0  0  0  0
  6 19  1  0  0  0  0
  7  8  1  0  0  0  0
  8  9  1  0  0  0  0
  9 10  1  0  0  0  0
  9 14  2  0  0  0  0
 10 11  2  0  0  0  0
 11 12  1  0  0  0  0
 12 13  2  0  0  0  0
 13 14  1  0  0  0  0
 14 15  1  0  0  0  0
 15 16  1  0  0  0  0
 16 17  1  0  0  0  0
 17 18  2  0  0  0  0
M  END
>  <n>
476

>  <SMILES>
O(CC(O)CNC(C)C)c1ccccc1OCC=C

>  <IC50>
>1000

>  <Class>
0

>  <NAME>
OXPRENOLOL

>  <INCHI_KEY>
CEMAWMOMDPGJMB-UHFFFAOYSA-N

>  <Reference>
Mitigating the inhibition of human Bile Salt Export Pump by drugs_ opportunities provided by physicochemical property modulation,  in-silico modeling and structural modification_SI

$$$$
PANTOLACTONE
  MOE2013           2D

  9  9  0  0  1  0  0  0  0  0999 V2000
    0.3120   -1.4670    0.0000 C   0  0  0  0  0  0  0  0  0  0  0  0
    0.0000    0.0000    0.0000 C   0  0  0  0  0  0  0  0  0  0  0  0
    0.0000    1.5000    0.0000 C   0  0  0  0  0  0  0  0  0  0  0  0
   -1.4270    1.9640    0.0000 O   0  0  0  0  0  0  0  0  0  0  0  0
   -2.3080    0.7500    0.0000 C   0  0  0  0  0  0  0  0  0  0  0  0
   -3.8080    0.7500    0.0000 O   0  0  0  0  0  0  0  0  0  0  0  0
   -1.4270   -0.4640    0.0000 C   0  0  3  0  0  0  0  0  0  0  0  0
   -1.8900   -1.8900    0.0000 O   0  0  0  0  0  0  0  0  0  0  0  0
    1.4920    0.1570    0.0000 C   0  0  0  0  0  0  0  0  0  0  0  0
  1  2  1  0  0  0  0
  2  3  1  0  0  0  0
  2  7  1  0  0  0  0
  2  9  1  0  0  0  0
  3  4  1  0  0  0  0
  4  5  1  0  0  0  0
  5  6  2  0  0  0  0
  5  7  1  0  0  0  0
  7  8  1  0  0  0  0
M  END
>  <n>
477

>  <SMILES>
O1CC(C)(C)C(O)C1=O

>  <IC50>
>1000

>  <Class>
0

>  <NAME>
PANTOLACTONE

>  <INCHI_KEY>
SERHXTVXHNVDKA-UHFFFAOYSA-N

>  <Reference>
Mitigating the inhibition of human Bile Salt Export Pump by drugs_ opportunities provided by physicochemical property modulation,  in-silico modeling and structural modification_SI

$$$$
PANTOTHENIC_ACID
  MOE2013           2D

 15 14  0  0  1  0  0  0  0  0999 V2000
   -2.7760    2.5100    0.0000 C   0  0  0  0  0  0  0  0  0  0  0  0
   -1.2990    2.2500    0.0000 C   0  0  0  0  0  0  0  0  0  0  0  0
   -1.8120    0.8400    0.0000 C   0  0  0  0  0  0  0  0  0  0  0  0
    0.0000    1.5000    0.0000 C   0  0  0  0  0  0  0  0  0  0  0  0
    0.0000    0.0000    0.0000 O   0  0  0  0  0  0  0  0  0  0  0  0
   -1.2990    3.7500    0.0000 C   0  0  3  0  0  0  0  0  0  0  0  0
   -2.5980    4.5000    0.0000 C   0  0  0  0  0  0  0  0  0  0  0  0
   -3.8970    3.7500    0.0000 O   0  0  0  0  0  0  0  0  0  0  0  0
   -2.5980    6.0000    0.0000 N   0  0  0  0  0  0  0  0  0  0  0  0
   -3.8970    6.7500    0.0000 C   0  0  0  0  0  0  0  0  0  0  0  0
   -3.8970    8.2500    0.0000 C   0  0  0  0  0  0  0  0  0  0  0  0
   -5.1960    9.0000    0.0000 C   0  0  0  0  0  0  0  0  0  0  0  0
   -5.1960   10.5000    0.0000 O   0  0  0  0  0  0  0  0  0  0  0  0
   -6.4950    8.2500    0.0000 O   0  0  0  0  0  0  0  0  0  0  0  0
    0.0000    4.5000    0.0000 O   0  0  0  0  0  0  0  0  0  0  0  0
  1  2  1  0  0  0  0
  2  3  1  0  0  0  0
  2  4  1  0  0  0  0
  2  6  1  0  0  0  0
  4  5  1  0  0  0  0
  6  7  1  0  0  0  0
  6 15  1  0  0  0  0
  7  8  2  0  0  0  0
  7  9  1  0  0  0  0
  9 10  1  0  0  0  0
 10 11  1  0  0  0  0
 11 12  1  0  0  0  0
 12 13  2  0  0  0  0
 12 14  1  0  0  0  0
M  END
>  <n>
478

>  <SMILES>
OC(=O)CCNC(=O)[C@H](O)C(CO)(C)C

>  <IC50>
>1000

>  <Class>
0

>  <NAME>
PANTOTHENIC ACID

>  <INCHI_KEY>
GHOKWGTUZJEAQD-ZETCQYMHSA-N

>  <Reference>
Mitigating the inhibition of human Bile Salt Export Pump by drugs_ opportunities provided by physicochemical property modulation,  in-silico modeling and structural modification_SI

$$$$
PAPAVERINE
  MOE2013           2D

 25 27  0  0  0  0  0  0  0  0999 V2000
    9.0930   -2.2500    0.0000 C   0  0  0  0  0  0  0  0  0  0  0  0
    7.7940   -3.0000    0.0000 O   0  0  0  0  0  0  0  0  0  0  0  0
    6.4950   -2.2500    0.0000 C   0  0  0  0  0  0  0  0  0  0  0  0
    6.4950   -0.7500    0.0000 C   0  0  0  0  0  0  0  0  0  0  0  0
    5.1960    0.0000    0.0000 C   0  0  0  0  0  0  0  0  0  0  0  0
    3.8970   -0.7500    0.0000 C   0  0  0  0  0  0  0  0  0  0  0  0
    3.8970   -2.2500    0.0000 C   0  0  0  0  0  0  0  0  0  0  0  0
    5.1960   -3.0000    0.0000 C   0  0  0  0  0  0  0  0  0  0  0  0
    5.1960   -4.5000    0.0000 O   0  0  0  0  0  0  0  0  0  0  0  0
    6.4950   -5.2500    0.0000 C   0  0  0  0  0  0  0  0  0  0  0  0
    2.5980    0.0000    0.0000 C   0  0  0  0  0  0  0  0  0  0  0  0
    1.2990   -0.7500    0.0000 C   0  0  0  0  0  0  0  0  0  0  0  0
    0.0000    0.0000    0.0000 C   0  0  0  0  0  0  0  0  0  0  0  0
    0.0000    1.5000    0.0000 C   0  0  0  0  0  0  0  0  0  0  0  0
   -1.2990    2.2500    0.0000 C   0  0  0  0  0  0  0  0  0  0  0  0
   -2.5980    1.5000    0.0000 C   0  0  0  0  0  0  0  0  0  0  0  0
   -2.5980    0.0000    0.0000 C   0  0  0  0  0  0  0  0  0  0  0  0
   -1.2990   -0.7500    0.0000 C   0  0  0  0  0  0  0  0  0  0  0  0
   -1.2990   -2.2500    0.0000 C   0  0  0  0  0  0  0  0  0  0  0  0
    0.0000   -3.0000    0.0000 C   0  0  0  0  0  0  0  0  0  0  0  0
    1.2990   -2.2500    0.0000 N   0  0  0  0  0  0  0  0  0  0  0  0
   -3.8970    2.2500    0.0000 O   0  0  0  0  0  0  0  0  0  0  0  0
   -5.1960    1.5000    0.0000 C   0  0  0  0  0  0  0  0  0  0  0  0
   -1.2990    3.7500    0.0000 O   0  0  0  0  0  0  0  0  0  0  0  0
   -2.5980    4.5000    0.0000 C   0  0  0  0  0  0  0  0  0  0  0  0
  1  2  1  0  0  0  0
  2  3  1  0  0  0  0
  3  4  1  0  0  0  0
  3  8  2  0  0  0  0
  4  5  2  0  0  0  0
  5  6  1  0  0  0  0
  6  7  2  0  0  0  0
  6 11  1  0  0  0  0
  7  8  1  0  0  0  0
  8  9  1  0  0  0  0
  9 10  1  0  0  0  0
 11 12  1  0  0  0  0
 12 13  1  0  0  0  0
 12 21  2  0  0  0  0
 13 14  1  0  0  0  0
 13 18  2  0  0  0  0
 14 15  2  0  0  0  0
 15 16  1  0  0  0  0
 15 24  1  0  0  0  0
 16 17  2  0  0  0  0
 16 22  1  0  0  0  0
 17 18  1  0  0  0  0
 18 19  1  0  0  0  0
 19 20  2  0  0  0  0
 20 21  1  0  0  0  0
 22 23  1  0  0  0  0
 24 25  1  0  0  0  0
M  END
>  <n>
479

>  <SMILES>
O(C)c1cc(ccc1OC)Cc1nccc2c1cc(OC)c(OC)c2

>  <IC50>
<10

>  <Class>
1

>  <NAME>
PAPAVERINE

>  <INCHI_KEY>
XQYZDYMELSJDRZ-UHFFFAOYSA-N

>  <Reference>
Mitigating the inhibition of human Bile Salt Export Pump by drugs_ opportunities provided by physicochemical property modulation,  in-silico modeling and structural modification_SI

$$$$
PARBENDAZOLE
  MOE2013           2D

 18 19  0  0  0  0  0  0  0  0999 V2000
    7.7940    1.5000    0.0000 C   0  0  0  0  0  0  0  0  0  0  0  0
    6.4950    2.2500    0.0000 C   0  0  0  0  0  0  0  0  0  0  0  0
    5.1960    1.5000    0.0000 C   0  0  0  0  0  0  0  0  0  0  0  0
    3.8970    2.2500    0.0000 C   0  0  0  0  0  0  0  0  0  0  0  0
    2.5980    1.5000    0.0000 C   0  0  0  0  0  0  0  0  0  0  0  0
    2.5980    0.0000    0.0000 C   0  0  0  0  0  0  0  0  0  0  0  0
    1.2990   -0.7500    0.0000 C   0  0  0  0  0  0  0  0  0  0  0  0
    0.0000    0.0000    0.0000 C   0  0  0  0  0  0  0  0  0  0  0  0
    0.0000    1.5000    0.0000 C   0  0  0  0  0  0  0  0  0  0  0  0
    1.2990    2.2500    0.0000 C   0  0  0  0  0  0  0  0  0  0  0  0
   -1.4270    1.9640    0.0000 N   0  0  0  0  0  0  0  0  0  0  0  0
   -2.3080    0.7500    0.0000 C   0  0  0  0  0  0  0  0  0  0  0  0
   -1.4270   -0.4640    0.0000 N   0  0  0  0  0  0  0  0  0  0  0  0
   -3.8080    0.7500    0.0000 N   0  0  0  0  0  0  0  0  0  0  0  0
   -4.5580   -0.5490    0.0000 C   0  0  0  0  0  0  0  0  0  0  0  0
   -3.8080   -1.8480    0.0000 O   0  0  0  0  0  0  0  0  0  0  0  0
   -6.0580   -0.5490    0.0000 O   0  0  0  0  0  0  0  0  0  0  0  0
   -6.8080   -1.8480    0.0000 C   0  0  0  0  0  0  0  0  0  0  0  0
  1  2  1  0  0  0  0
  2  3  1  0  0  0  0
  3  4  1  0  0  0  0
  4  5  1  0  0  0  0
  5  6  1  0  0  0  0
  5 10  2  0  0  0  0
  6  7  2  0  0  0  0
  7  8  1  0  0  0  0
  8  9  2  0  0  0  0
  8 13  1  0  0  0  0
  9 10  1  0  0  0  0
  9 11  1  0  0  0  0
 11 12  2  0  0  0  0
 12 13  1  0  0  0  0
 12 14  1  0  0  0  0
 14 15  1  0  0  0  0
 15 16  2  0  0  0  0
 15 17  1  0  0  0  0
 17 18  1  0  0  0  0
M  END
>  <n>
480

>  <SMILES>
O(C(=O)Nc1[nH]c2c(n1)cc(cc2)CCCC)C

>  <IC50>
>1000

>  <Class>
0

>  <NAME>
PARBENDAZOLE

>  <INCHI_KEY>
YRWLZFXJFBZBEY-UHFFFAOYSA-N

>  <Reference>
Mitigating the inhibition of human Bile Salt Export Pump by drugs_ opportunities provided by physicochemical property modulation,  in-silico modeling and structural modification_SI

$$$$
PARGYLINE
  MOE2013           2D

 12 12  0  0  1  0  0  0  0  0999 V2000
    0.0000   -3.0000    0.0000 C   0  0  0  0  0  0  0  0  0  0  0  0
    1.2990   -2.2500    0.0000 N   0  0  3  0  0  0  0  0  0  0  0  0
    2.5980   -3.0000    0.0000 C   0  0  0  0  0  0  0  0  0  0  0  0
    2.5980   -4.5000    0.0000 C   0  0  0  0  0  0  0  0  0  0  0  0
    2.5980   -6.0000    0.0000 C   0  0  0  0  0  0  0  0  0  0  0  0
    1.2990   -0.7500    0.0000 C   0  0  0  0  0  0  0  0  0  0  0  0
    0.0000    0.0000    0.0000 C   0  0  0  0  0  0  0  0  0  0  0  0
    0.0000    1.5000    0.0000 C   0  0  0  0  0  0  0  0  0  0  0  0
   -1.2990    2.2500    0.0000 C   0  0  0  0  0  0  0  0  0  0  0  0
   -2.5980    1.5000    0.0000 C   0  0  0  0  0  0  0  0  0  0  0  0
   -2.5980    0.0000    0.0000 C   0  0  0  0  0  0  0  0  0  0  0  0
   -1.2990   -0.7500    0.0000 C   0  0  0  0  0  0  0  0  0  0  0  0
  1  2  1  0  0  0  0
  2  3  1  0  0  0  0
  2  6  1  0  0  0  0
  3  4  1  0  0  0  0
  4  5  3  0  0  0  0
  6  7  1  0  0  0  0
  7  8  1  0  0  0  0
  7 12  2  0  0  0  0
  8  9  2  0  0  0  0
  9 10  1  0  0  0  0
 10 11  2  0  0  0  0
 11 12  1  0  0  0  0
M  END
>  <n>
481

>  <SMILES>
N(Cc1ccccc1)(CC#C)C

>  <IC50>
>1000

>  <Class>
0

>  <NAME>
PARGYLINE

>  <INCHI_KEY>
DPWPWRLQFGFJFI-UHFFFAOYSA-N

>  <Reference>
Mitigating, Dawson

$$$$
PAROXETINE_HYDROCHLORIDE
  MOE2013           2D

 24 27  0  0  1  0  0  0  0  0999 V2000
    6.4950   -0.7500    0.0000 C   0  0  0  0  0  0  0  0  0  0  0  0
    6.4950   -2.2500    0.0000 C   0  0  0  0  0  0  0  0  0  0  0  0
    7.7940   -3.0000    0.0000 C   0  0  0  0  0  0  0  0  0  0  0  0
    9.0930   -2.2500    0.0000 C   0  0  0  0  0  0  0  0  0  0  0  0
    9.0930   -0.7500    0.0000 C   0  0  0  0  0  0  0  0  0  0  0  0
    7.7940    0.0000    0.0000 C   0  0  0  0  0  0  0  0  0  0  0  0
    7.7940    1.5000    0.0000 C   0  0  3  0  0  0  0  0  0  0  0  0
    9.0930    2.2500    0.0000 C   0  0  0  0  0  0  0  0  0  0  0  0
    9.0930    3.7500    0.0000 C   0  0  0  0  0  0  0  0  0  0  0  0
    7.7940    4.5000    0.0000 N   0  0  0  0  0  0  0  0  0  0  0  0
    6.4950    3.7500    0.0000 C   0  0  0  0  0  0  0  0  0  0  0  0
    6.4950    2.2500    0.0000 C   0  0  3  0  0  0  0  0  0  0  0  0
    5.1960    1.5000    0.0000 C   0  0  0  0  0  0  0  0  0  0  0  0
    3.8970    2.2500    0.0000 O   0  0  0  0  0  0  0  0  0  0  0  0
    2.5980    1.5000    0.0000 C   0  0  0  0  0  0  0  0  0  0  0  0
    2.5980    0.0000    0.0000 C   0  0  0  0  0  0  0  0  0  0  0  0
    1.2990   -0.7500    0.0000 C   0  0  0  0  0  0  0  0  0  0  0  0
    0.0000    0.0000    0.0000 C   0  0  0  0  0  0  0  0  0  0  0  0
    0.0000    1.5000    0.0000 C   0  0  0  0  0  0  0  0  0  0  0  0
    1.2990    2.2500    0.0000 C   0  0  0  0  0  0  0  0  0  0  0  0
   -1.4270    1.9640    0.0000 O   0  0  0  0  0  0  0  0  0  0  0  0
   -2.3080    0.7500    0.0000 C   0  0  0  0  0  0  0  0  0  0  0  0
   -1.4270   -0.4640    0.0000 O   0  0  0  0  0  0  0  0  0  0  0  0
    7.7940   -4.5000    0.0000 F   0  0  0  0  0  0  0  0  0  0  0  0
  1  2  1  0  0  0  0
  1  6  2  0  0  0  0
  2  3  2  0  0  0  0
  3  4  1  0  0  0  0
  3 24  1  0  0  0  0
  4  5  2  0  0  0  0
  5  6  1  0  0  0  0
  6  7  1  0  0  0  0
  7  8  1  0  0  0  0
  7 12  1  0  0  0  0
  8  9  1  0  0  0  0
  9 10  1  0  0  0  0
 10 11  1  0  0  0  0
 11 12  1  0  0  0  0
 12 13  1  0  0  0  0
 13 14  1  0  0  0  0
 14 15  1  0  0  0  0
 15 16  1  0  0  0  0
 15 20  2  0  0  0  0
 16 17  2  0  0  0  0
 17 18  1  0  0  0  0
 18 19  2  0  0  0  0
 18 23  1  0  0  0  0
 19 20  1  0  0  0  0
 19 21  1  0  0  0  0
 21 22  1  0  0  0  0
 22 23  1  0  0  0  0
M  END
>  <n>
482

>  <SMILES>
Fc1ccc(cc1)[C@@H]1CCNC[C@H]1COc1cc2OCOc2cc1

>  <IC50>
68.91

>  <Class>
0

>  <NAME>
PAROXETINE HYDROCHLORIDE

>  <INCHI_KEY>
AHOUBRCZNHFOSL-YOEHRIQHSA-N

>  <Reference>
Mitigating the inhibition of human Bile Salt Export Pump by drugs_ opportunities provided by physicochemical property modulation,  in-silico modeling and structural modification_SI

$$$$
PENTAMIDINE
  MOE2013           2D

 25 26  0  0  0  0  0  0  0  0999 V2000
    6.4950  -11.2500    0.0000 C   0  0  0  0  0  0  0  0  0  0  0  0
    6.4950   -9.7500    0.0000 C   0  0  0  0  0  0  0  0  0  0  0  0
    5.1960   -9.0000    0.0000 C   0  0  0  0  0  0  0  0  0  0  0  0
    3.8970   -9.7500    0.0000 C   0  0  0  0  0  0  0  0  0  0  0  0
    3.8970  -11.2500    0.0000 C   0  0  0  0  0  0  0  0  0  0  0  0
    5.1960  -12.0000    0.0000 C   0  0  0  0  0  0  0  0  0  0  0  0
    5.1960  -13.5000    0.0000 C   0  0  0  0  0  0  0  0  0  0  0  0
    6.4950  -14.2500    0.0000 N   0  0  0  0  0  0  0  0  0  0  0  0
    3.8970  -14.2500    0.0000 N   0  0  0  0  0  0  0  0  0  0  0  0
    5.1960   -7.5000    0.0000 O   0  0  0  0  0  0  0  0  0  0  0  0
    3.8970   -6.7500    0.0000 C   0  0  0  0  0  0  0  0  0  0  0  0
    3.8970   -5.2500    0.0000 C   0  0  0  0  0  0  0  0  0  0  0  0
    2.5980   -4.5000    0.0000 C   0  0  0  0  0  0  0  0  0  0  0  0
    2.5980   -3.0000    0.0000 C   0  0  0  0  0  0  0  0  0  0  0  0
    1.2990   -2.2500    0.0000 C   0  0  0  0  0  0  0  0  0  0  0  0
    1.2990   -0.7500    0.0000 O   0  0  0  0  0  0  0  0  0  0  0  0
    0.0000    0.0000    0.0000 C   0  0  0  0  0  0  0  0  0  0  0  0
    0.0000    1.5000    0.0000 C   0  0  0  0  0  0  0  0  0  0  0  0
   -1.2990    2.2500    0.0000 C   0  0  0  0  0  0  0  0  0  0  0  0
   -2.5980    1.5000    0.0000 C   0  0  0  0  0  0  0  0  0  0  0  0
   -2.5980    0.0000    0.0000 C   0  0  0  0  0  0  0  0  0  0  0  0
   -1.2990   -0.7500    0.0000 C   0  0  0  0  0  0  0  0  0  0  0  0
   -3.8970    2.2500    0.0000 C   0  0  0  0  0  0  0  0  0  0  0  0
   -3.8970    3.7500    0.0000 N   0  0  0  0  0  0  0  0  0  0  0  0
   -5.1960    1.5000    0.0000 N   0  0  0  0  0  0  0  0  0  0  0  0
  1  2  1  0  0  0  0
  1  6  2  0  0  0  0
  2  3  2  0  0  0  0
  3  4  1  0  0  0  0
  3 10  1  0  0  0  0
  4  5  2  0  0  0  0
  5  6  1  0  0  0  0
  6  7  1  0  0  0  0
  7  8  2  0  0  0  0
  7  9  1  0  0  0  0
 10 11  1  0  0  0  0
 11 12  1  0  0  0  0
 12 13  1  0  0  0  0
 13 14  1  0  0  0  0
 14 15  1  0  0  0  0
 15 16  1  0  0  0  0
 16 17  1  0  0  0  0
 17 18  1  0  0  0  0
 17 22  2  0  0  0  0
 18 19  2  0  0  0  0
 19 20  1  0  0  0  0
 20 21  2  0  0  0  0
 20 23  1  0  0  0  0
 21 22  1  0  0  0  0
 23 24  2  0  0  0  0
 23 25  1  0  0  0  0
M  END
>  <n>
483

>  <SMILES>
O(CCCCCOc1ccc(cc1)C(N)=N)c1ccc(cc1)C(N)=N

>  <IC50>
>1000

>  <Class>
0

>  <NAME>
PENTAMIDINE

>  <INCHI_KEY>
XDRYMKDFEDOLFX-UHFFFAOYSA-N

>  <Reference>
Mitigating the inhibition of human Bile Salt Export Pump by drugs_ opportunities provided by physicochemical property modulation,  in-silico modeling and structural modification_SI

$$$$
PENTYLENETETRAZOLE
  MOE2013           2D

 10 11  0  0  0  0  0  0  0  0999 V2000
    0.3020   -3.3570    0.0000 C   0  0  0  0  0  0  0  0  0  0  0  0
    1.3860   -2.3200    0.0000 C   0  0  0  0  0  0  0  0  0  0  0  0
    1.2520   -0.8260    0.0000 C   0  0  0  0  0  0  0  0  0  0  0  0
    0.0000    0.0000    0.0000 C   0  0  0  0  0  0  0  0  0  0  0  0
    0.0000    1.5000    0.0000 N   0  0  0  0  0  0  0  0  0  0  0  0
   -1.4270    1.9640    0.0000 N   0  0  0  0  0  0  0  0  0  0  0  0
   -2.3080    0.7500    0.0000 N   0  0  0  0  0  0  0  0  0  0  0  0
   -1.4270   -0.4640    0.0000 N   0  0  0  0  0  0  0  0  0  0  0  0
   -1.9540   -1.8680    0.0000 C   0  0  0  0  0  0  0  0  0  0  0  0
   -1.1840   -3.1560    0.0000 C   0  0  0  0  0  0  0  0  0  0  0  0
  1  2  1  0  0  0  0
  1 10  1  0  0  0  0
  2  3  1  0  0  0  0
  3  4  1  0  0  0  0
  4  5  2  0  0  0  0
  4  8  1  0  0  0  0
  5  6  1  0  0  0  0
  6  7  2  0  0  0  0
  7  8  1  0  0  0  0
  8  9  1  0  0  0  0
  9 10  1  0  0  0  0
M  END
>  <n>
484

>  <SMILES>
n12nnnc1CCCCC2

>  <IC50>
>1000

>  <Class>
0

>  <NAME>
PENTYLENETETRAZOLE

>  <INCHI_KEY>
CWRVKFFCRWGWCS-UHFFFAOYSA-N

>  <Reference>
Mitigating the inhibition of human Bile Salt Export Pump by drugs_ opportunities provided by physicochemical property modulation,  in-silico modeling and structural modification_SI

$$$$
mol487
  MOE2013           2D

 24 27  0  0  1  0  0  0  0  0999 V2000
    3.8970    2.2500    0.0000 C   0  0  0  0  0  0  0  0  0  0  0  0
    2.5980    1.5000    0.0000 C   0  0  0  0  0  0  0  0  0  0  0  0
    2.5980    0.0000    0.0000 C   0  0  0  0  0  0  0  0  0  0  0  0
    1.2990   -0.7500    0.0000 C   0  0  0  0  0  0  0  0  0  0  0  0
    0.0000    0.0000    0.0000 C   0  0  0  0  0  0  0  0  0  0  0  0
    0.0000    1.5000    0.0000 C   0  0  0  0  0  0  0  0  0  0  0  0
    1.2990    2.2500    0.0000 C   0  0  0  0  0  0  0  0  0  0  0  0
   -1.4270    1.9640    0.0000 C   0  0  0  0  0  0  0  0  0  0  0  0
   -2.3080    0.7500    0.0000 C   0  0  0  0  0  0  0  0  0  0  0  0
   -1.4270   -0.4640    0.0000 N   0  0  0  0  0  0  0  0  0  0  0  0
   -1.8900   -1.8900    0.0000 C   0  0  0  0  0  0  0  0  0  0  0  0
   -3.3570   -2.2020    0.0000 C   0  0  0  0  0  0  0  0  0  0  0  0
   -3.8210   -3.6290    0.0000 C   0  0  0  0  0  0  0  0  0  0  0  0
   -5.2880   -3.9400    0.0000 C   0  0  0  0  0  0  0  0  0  0  0  0
   -5.7520   -5.3670    0.0000 C   0  0  0  0  0  0  0  0  0  0  0  0
   -4.7480   -6.4820    0.0000 C   0  0  0  0  0  0  0  0  0  0  0  0
   -3.2810   -6.1700    0.0000 N   0  0  0  0  0  0  0  0  0  0  0  0
   -2.8170   -4.7430    0.0000 C   0  0  0  0  0  0  0  0  0  0  0  0
   -5.2110   -7.9080    0.0000 C   0  0  0  0  0  0  0  0  0  0  0  0
   -3.8000    0.9070    0.0000 C   0  0  0  0  0  0  0  0  0  0  0  0
   -4.4100    2.2770    0.0000 C   0  0  0  0  0  0  0  0  0  0  0  0
   -3.5280    3.4910    0.0000 N   0  0  3  0  0  0  0  0  0  0  0  0
   -2.0370    3.3340    0.0000 C   0  0  0  0  0  0  0  0  0  0  0  0
   -4.1390    4.8610    0.0000 C   0  0  0  0  0  0  0  0  0  0  0  0
  1  2  1  0  0  0  0
  2  3  1  0  0  0  0
  2  7  2  0  0  0  0
  3  4  2  0  0  0  0
  4  5  1  0  0  0  0
  5  6  2  0  0  0  0
  5 10  1  0  0  0  0
  6  7  1  0  0  0  0
  6  8  1  0  0  0  0
  8  9  2  0  0  0  0
  8 23  1  0  0  0  0
  9 10  1  0  0  0  0
  9 20  1  0  0  0  0
 10 11  1  0  0  0  0
 11 12  1  0  0  0  0
 12 13  1  0  0  0  0
 13 14  1  0  0  0  0
 13 18  2  0  0  0  0
 14 15  2  0  0  0  0
 15 16  1  0  0  0  0
 16 17  2  0  0  0  0
 16 19  1  0  0  0  0
 17 18  1  0  0  0  0
 20 21  1  0  0  0  0
 21 22  1  0  0  0  0
 22 23  1  0  0  0  0
 22 24  1  0  0  0  0
M  END
>  <n>
487

>  <SMILES>
n1cc(ccc1C)CCn1c2CCN(Cc2c2cc(ccc12)C)C

>  <IC50>
135.9

>  <Class>
0

>  <NAME>
PF-1913539

>  <INCHI_KEY>
JNODQFNWMXFMEV-UHFFFAOYSA-N

>  <Reference>
Mitigating the inhibition of human Bile Salt Export Pump by drugs_ opportunities provided by physicochemical property modulation,  in-silico modeling and structural modification_SI

$$$$
PHENACEMIDE
  MOE2013           2D

 13 13  0  0  0  0  0  0  0  0999 V2000
    0.0000    0.0000    0.0000 C   0  0  0  0  0  0  0  0  0  0  0  0
    0.0000    1.5000    0.0000 C   0  0  0  0  0  0  0  0  0  0  0  0
   -1.2990    2.2500    0.0000 C   0  0  0  0  0  0  0  0  0  0  0  0
   -2.5980    1.5000    0.0000 C   0  0  0  0  0  0  0  0  0  0  0  0
   -2.5980    0.0000    0.0000 C   0  0  0  0  0  0  0  0  0  0  0  0
   -1.2990   -0.7500    0.0000 C   0  0  0  0  0  0  0  0  0  0  0  0
   -3.8970    2.2500    0.0000 C   0  0  0  0  0  0  0  0  0  0  0  0
   -5.1960    1.5000    0.0000 C   0  0  0  0  0  0  0  0  0  0  0  0
   -5.1960    0.0000    0.0000 O   0  0  0  0  0  0  0  0  0  0  0  0
   -6.4950    2.2500    0.0000 N   0  0  0  0  0  0  0  0  0  0  0  0
   -7.7940    1.5000    0.0000 C   0  0  0  0  0  0  0  0  0  0  0  0
   -9.0930    2.2500    0.0000 O   0  0  0  0  0  0  0  0  0  0  0  0
   -7.7940    0.0000    0.0000 N   0  0  0  0  0  0  0  0  0  0  0  0
  1  2  1  0  0  0  0
  1  6  2  0  0  0  0
  2  3  2  0  0  0  0
  3  4  1  0  0  0  0
  4  5  2  0  0  0  0
  4  7  1  0  0  0  0
  5  6  1  0  0  0  0
  7  8  1  0  0  0  0
  8  9  2  0  0  0  0
  8 10  1  0  0  0  0
 10 11  1  0  0  0  0
 11 12  2  0  0  0  0
 11 13  1  0  0  0  0
M  END
>  <n>
488

>  <SMILES>
O=C(NC(=O)N)Cc1ccccc1

>  <IC50>
>1000

>  <Class>
0

>  <NAME>
PHENACEMIDE

>  <INCHI_KEY>
XPFRXWCVYUEORT-UHFFFAOYSA-N

>  <Reference>
Mitigating the inhibition of human Bile Salt Export Pump by drugs_ opportunities provided by physicochemical property modulation,  in-silico modeling and structural modification_SI

$$$$
PHENELZINE
  MOE2013           2D

 10 10  0  0  0  0  0  0  0  0999 V2000
    0.0000    0.0000    0.0000 C   0  0  0  0  0  0  0  0  0  0  0  0
    0.0000    1.5000    0.0000 C   0  0  0  0  0  0  0  0  0  0  0  0
   -1.2990    2.2500    0.0000 C   0  0  0  0  0  0  0  0  0  0  0  0
   -2.5980    1.5000    0.0000 C   0  0  0  0  0  0  0  0  0  0  0  0
   -2.5980    0.0000    0.0000 C   0  0  0  0  0  0  0  0  0  0  0  0
   -1.2990   -0.7500    0.0000 C   0  0  0  0  0  0  0  0  0  0  0  0
   -3.8970    2.2500    0.0000 C   0  0  0  0  0  0  0  0  0  0  0  0
   -5.1960    1.5000    0.0000 C   0  0  0  0  0  0  0  0  0  0  0  0
   -6.4950    2.2500    0.0000 N   0  0  0  0  0  0  0  0  0  0  0  0
   -7.7940    1.5000    0.0000 N   0  0  0  0  0  0  0  0  0  0  0  0
  1  2  1  0  0  0  0
  1  6  2  0  0  0  0
  2  3  2  0  0  0  0
  3  4  1  0  0  0  0
  4  5  2  0  0  0  0
  4  7  1  0  0  0  0
  5  6  1  0  0  0  0
  7  8  1  0  0  0  0
  8  9  1  0  0  0  0
  9 10  1  0  0  0  0
M  END
>  <n>
489

>  <SMILES>
N(N)CCc1ccccc1

>  <IC50>
>897.2

>  <Class>
0

>  <NAME>
PHENELZINE

>  <INCHI_KEY>
RMUCZJUITONUFY-UHFFFAOYSA-N

>  <Reference>
Mitigating the inhibition of human Bile Salt Export Pump by drugs_ opportunities provided by physicochemical property modulation,  in-silico modeling and structural modification_SI

$$$$
PHENETHICILLIN
  MOE2013           2D

 25 27  0  0  1  0  0  0  0  0999 V2000
    3.1820   -3.1820    0.0000 C   0  0  0  0  0  0  0  0  0  0  0  0
    1.7330   -3.5700    0.0000 C   0  0  3  0  0  0  0  0  0  0  0  0
    0.6720   -2.5100    0.0000 C   0  0  0  0  0  0  0  0  0  0  0  0
   -0.7760   -2.8980    0.0000 O   0  0  0  0  0  0  0  0  0  0  0  0
    1.0610   -1.0610    0.0000 N   0  0  0  0  0  0  0  0  0  0  0  0
    0.0000    0.0000    0.0000 C   0  0  3  0  0  0  0  0  0  0  0  0
    0.0000    1.5000    0.0000 C   0  0  3  0  0  0  0  0  0  0  0  0
   -1.5000    1.5000    0.0000 N   0  0  0  0  0  0  0  0  0  0  0  0
   -1.5000    0.0000    0.0000 C   0  0  0  0  0  0  0  0  0  0  0  0
   -2.5610   -1.0610    0.0000 O   0  0  0  0  0  0  0  0  0  0  0  0
   -1.9640    2.9270    0.0000 C   0  0  3  0  0  0  0  0  0  0  0  0
   -0.7500    3.8080    0.0000 C   0  0  0  0  0  0  0  0  0  0  0  0
    0.4640    2.9270    0.0000 S   0  0  0  0  0  0  0  0  0  0  0  0
    0.2540    4.9230    0.0000 C   0  0  0  0  0  0  0  0  0  0  0  0
   -1.7540    4.9230    0.0000 C   0  0  0  0  0  0  0  0  0  0  0  0
   -3.3900    3.3900    0.0000 C   0  0  0  0  0  0  0  0  0  0  0  0
   -3.7020    4.8570    0.0000 O   0  0  0  0  0  0  0  0  0  0  0  0
   -4.5050    2.3860    0.0000 O   0  0  0  0  0  0  0  0  0  0  0  0
    1.3450   -5.0190    0.0000 O   0  0  0  0  0  0  0  0  0  0  0  0
    2.4060   -6.0800    0.0000 C   0  0  0  0  0  0  0  0  0  0  0  0
    2.0170   -7.5290    0.0000 C   0  0  0  0  0  0  0  0  0  0  0  0
    3.0780   -8.5890    0.0000 C   0  0  0  0  0  0  0  0  0  0  0  0
    4.5270   -8.2010    0.0000 C   0  0  0  0  0  0  0  0  0  0  0  0
    4.9150   -6.7520    0.0000 C   0  0  0  0  0  0  0  0  0  0  0  0
    3.8540   -5.6920    0.0000 C   0  0  0  0  0  0  0  0  0  0  0  0
  1  2  1  0  0  0  0
  2  3  1  0  0  0  0
  2 19  1  0  0  0  0
  3  4  2  0  0  0  0
  3  5  1  0  0  0  0
  5  6  1  0  0  0  0
  6  7  1  0  0  0  0
  6  9  1  0  0  0  0
  7  8  1  0  0  0  0
  7 13  1  0  0  0  0
  8  9  1  0  0  0  0
  8 11  1  0  0  0  0
  9 10  2  0  0  0  0
 11 12  1  0  0  0  0
 11 16  1  0  0  0  0
 12 13  1  0  0  0  0
 12 14  1  0  0  0  0
 12 15  1  0  0  0  0
 16 17  2  0  0  0  0
 16 18  1  0  0  0  0
 19 20  1  0  0  0  0
 20 21  1  0  0  0  0
 20 25  2  0  0  0  0
 21 22  2  0  0  0  0
 22 23  1  0  0  0  0
 23 24  2  0  0  0  0
 24 25  1  0  0  0  0
M  END
>  <n>
490

>  <SMILES>
S1[C@H]2N([C@@H](C(O)=O)C1(C)C)C(=O)[C@H]2NC(=O)C(Oc1ccccc1)C

>  <IC50>
<10

>  <Class>
1

>  <NAME>
PHENETHICILLIN

>  <INCHI_KEY>
NONJJLVGHLVQQM-JHXYUMNGSA-N

>  <Reference>
Mitigating the inhibition of human Bile Salt Export Pump by drugs_ opportunities provided by physicochemical property modulation,  in-silico modeling and structural modification_SI

$$$$
PHENFORMIN
  MOE2013           2D

 15 15  0  0  0  0  0  0  0  0999 V2000
    0.0000    0.0000    0.0000 C   0  0  0  0  0  0  0  0  0  0  0  0
    0.0000    1.5000    0.0000 C   0  0  0  0  0  0  0  0  0  0  0  0
   -1.2990    2.2500    0.0000 C   0  0  0  0  0  0  0  0  0  0  0  0
   -2.5980    1.5000    0.0000 C   0  0  0  0  0  0  0  0  0  0  0  0
   -2.5980    0.0000    0.0000 C   0  0  0  0  0  0  0  0  0  0  0  0
   -1.2990   -0.7500    0.0000 C   0  0  0  0  0  0  0  0  0  0  0  0
   -3.8970    2.2500    0.0000 C   0  0  0  0  0  0  0  0  0  0  0  0
   -5.1960    1.5000    0.0000 C   0  0  0  0  0  0  0  0  0  0  0  0
   -6.4950    2.2500    0.0000 N   0  0  0  0  0  0  0  0  0  0  0  0
   -7.7940    1.5000    0.0000 C   0  0  0  0  0  0  0  0  0  0  0  0
   -7.7940    0.0000    0.0000 N   0  0  0  0  0  0  0  0  0  0  0  0
   -9.0930    2.2500    0.0000 N   0  0  0  0  0  0  0  0  0  0  0  0
  -10.3920    1.5000    0.0000 C   0  0  0  0  0  0  0  0  0  0  0  0
  -11.6910    2.2500    0.0000 N   0  0  0  0  0  0  0  0  0  0  0  0
  -10.3920    0.0000    0.0000 N   0  0  0  0  0  0  0  0  0  0  0  0
  1  2  1  0  0  0  0
  1  6  2  0  0  0  0
  2  3  2  0  0  0  0
  3  4  1  0  0  0  0
  4  5  2  0  0  0  0
  4  7  1  0  0  0  0
  5  6  1  0  0  0  0
  7  8  1  0  0  0  0
  8  9  1  0  0  0  0
  9 10  1  0  0  0  0
 10 11  2  0  0  0  0
 10 12  1  0  0  0  0
 12 13  1  0  0  0  0
 13 14  2  0  0  0  0
 13 15  1  0  0  0  0
M  END
>  <n>
491

>  <SMILES>
N(CCc1ccccc1)C(NC(N)=N)=N

>  <IC50>
>1000

>  <Class>
0

>  <NAME>
PHENFORMIN

>  <INCHI_KEY>
ICFJFFQQTFMIBG-UHFFFAOYSA-N

>  <Reference>
Mitigating the inhibition of human Bile Salt Export Pump by drugs_ opportunities provided by physicochemical property modulation,  in-silico modeling and structural modification_SI

$$$$
PHENIRAMINE_MALEATE
  MOE2013           2D

 18 19  0  0  1  0  0  0  0  0999 V2000
    3.8970   -5.2500    0.0000 C   0  0  0  0  0  0  0  0  0  0  0  0
    2.5980   -4.5000    0.0000 N   0  0  0  0  0  0  0  0  0  0  0  0
    1.2990   -5.2500    0.0000 C   0  0  0  0  0  0  0  0  0  0  0  0
    2.5980   -3.0000    0.0000 C   0  0  0  0  0  0  0  0  0  0  0  0
    1.2990   -2.2500    0.0000 C   0  0  0  0  0  0  0  0  0  0  0  0
    1.2990   -0.7500    0.0000 C   0  0  3  0  0  0  0  0  0  0  0  0
    0.0000    0.0000    0.0000 C   0  0  0  0  0  0  0  0  0  0  0  0
    0.0000    1.5000    0.0000 C   0  0  0  0  0  0  0  0  0  0  0  0
   -1.2990    2.2500    0.0000 C   0  0  0  0  0  0  0  0  0  0  0  0
   -2.5980    1.5000    0.0000 C   0  0  0  0  0  0  0  0  0  0  0  0
   -2.5980    0.0000    0.0000 C   0  0  0  0  0  0  0  0  0  0  0  0
   -1.2990   -0.7500    0.0000 C   0  0  0  0  0  0  0  0  0  0  0  0
    2.5980    0.0000    0.0000 C   0  0  0  0  0  0  0  0  0  0  0  0
    3.8970   -0.7500    0.0000 C   0  0  0  0  0  0  0  0  0  0  0  0
    5.1960    0.0000    0.0000 C   0  0  0  0  0  0  0  0  0  0  0  0
    5.1960    1.5000    0.0000 C   0  0  0  0  0  0  0  0  0  0  0  0
    3.8970    2.2500    0.0000 C   0  0  0  0  0  0  0  0  0  0  0  0
    2.5980    1.5000    0.0000 N   0  0  0  0  0  0  0  0  0  0  0  0
  1  2  1  0  0  0  0
  2  3  1  0  0  0  0
  2  4  1  0  0  0  0
  4  5  1  0  0  0  0
  5  6  1  0  0  0  0
  6  7  1  0  0  0  0
  6 13  1  0  0  0  0
  7  8  1  0  0  0  0
  7 12  2  0  0  0  0
  8  9  2  0  0  0  0
  9 10  1  0  0  0  0
 10 11  2  0  0  0  0
 11 12  1  0  0  0  0
 13 14  1  0  0  0  0
 13 18  2  0  0  0  0
 14 15  2  0  0  0  0
 15 16  1  0  0  0  0
 16 17  2  0  0  0  0
 17 18  1  0  0  0  0
M  END
>  <n>
492

>  <SMILES>
n1ccccc1C(CCN(C)C)c1ccccc1

>  <IC50>
>1000

>  <Class>
0

>  <NAME>
PHENIRAMINE MALEATE

>  <INCHI_KEY>
IJHNSHDBIRRJRN-UHFFFAOYSA-N

>  <Reference>
Mitigating the inhibition of human Bile Salt Export Pump by drugs_ opportunities provided by physicochemical property modulation,  in-silico modeling and structural modification_SI

$$$$
PHENSUXIMIDE
  MOE2013           2D

 14 15  0  0  1  0  0  0  0  0999 V2000
    1.2140   -0.8820    0.0000 C   0  0  0  0  0  0  0  0  0  0  0  0
    0.0000    0.0000    0.0000 N   0  0  0  0  0  0  0  0  0  0  0  0
    0.0000    1.5000    0.0000 C   0  0  0  0  0  0  0  0  0  0  0  0
    1.2140    2.3820    0.0000 O   0  0  0  0  0  0  0  0  0  0  0  0
   -1.4270    1.9640    0.0000 C   0  0  0  0  0  0  0  0  0  0  0  0
   -2.3080    0.7500    0.0000 C   0  0  3  0  0  0  0  0  0  0  0  0
   -1.4270   -0.4640    0.0000 C   0  0  0  0  0  0  0  0  0  0  0  0
   -1.8900   -1.8900    0.0000 O   0  0  0  0  0  0  0  0  0  0  0  0
   -3.8080    0.7500    0.0000 C   0  0  0  0  0  0  0  0  0  0  0  0
   -4.5580    2.0490    0.0000 C   0  0  0  0  0  0  0  0  0  0  0  0
   -6.0580    2.0490    0.0000 C   0  0  0  0  0  0  0  0  0  0  0  0
   -6.8080    0.7500    0.0000 C   0  0  0  0  0  0  0  0  0  0  0  0
   -6.0580   -0.5490    0.0000 C   0  0  0  0  0  0  0  0  0  0  0  0
   -4.5580   -0.5490    0.0000 C   0  0  0  0  0  0  0  0  0  0  0  0
  1  2  1  0  0  0  0
  2  3  1  0  0  0  0
  2  7  1  0  0  0  0
  3  4  2  0  0  0  0
  3  5  1  0  0  0  0
  5  6  1  0  0  0  0
  6  7  1  0  0  0  0
  6  9  1  0  0  0  0
  7  8  2  0  0  0  0
  9 10  1  0  0  0  0
  9 14  2  0  0  0  0
 10 11  2  0  0  0  0
 11 12  1  0  0  0  0
 12 13  2  0  0  0  0
 13 14  1  0  0  0  0
M  END
>  <n>
493

>  <SMILES>
O=C1N(C)C(=O)CC1c1ccccc1

>  <IC50>
>1000

>  <Class>
0

>  <NAME>
PHENSUXIMIDE

>  <INCHI_KEY>
WLWFNJKHKGIJNW-UHFFFAOYSA-N

>  <Reference>
Mitigating the inhibition of human Bile Salt Export Pump by drugs_ opportunities provided by physicochemical property modulation,  in-silico modeling and structural modification_SI

$$$$
PHENTOLAMINE
  MOE2013           2D

 21 23  0  0  1  0  0  0  0  0999 V2000
    7.4380   -3.7980    0.0000 C   0  0  0  0  0  0  0  0  0  0  0  0
    6.2240   -2.9170    0.0000 C   0  0  0  0  0  0  0  0  0  0  0  0
    6.3810   -1.4250    0.0000 C   0  0  0  0  0  0  0  0  0  0  0  0
    5.1680   -0.5430    0.0000 C   0  0  0  0  0  0  0  0  0  0  0  0
    3.7970   -1.1530    0.0000 C   0  0  0  0  0  0  0  0  0  0  0  0
    3.6410   -2.6450    0.0000 C   0  0  0  0  0  0  0  0  0  0  0  0
    4.8540   -3.5270    0.0000 C   0  0  0  0  0  0  0  0  0  0  0  0
    2.5840   -0.2720    0.0000 N   0  0  3  0  0  0  0  0  0  0  0  0
    1.2140   -0.8820    0.0000 C   0  0  0  0  0  0  0  0  0  0  0  0
    0.0000    0.0000    0.0000 C   0  0  0  0  0  0  0  0  0  0  0  0
    0.0000    1.5000    0.0000 N   0  0  0  0  0  0  0  0  0  0  0  0
   -1.4270    1.9640    0.0000 C   0  0  0  0  0  0  0  0  0  0  0  0
   -2.3080    0.7500    0.0000 C   0  0  0  0  0  0  0  0  0  0  0  0
   -1.4270   -0.4640    0.0000 N   0  0  0  0  0  0  0  0  0  0  0  0
    2.7410    1.2200    0.0000 C   0  0  0  0  0  0  0  0  0  0  0  0
    4.1110    1.8300    0.0000 C   0  0  0  0  0  0  0  0  0  0  0  0
    4.2680    3.3220    0.0000 C   0  0  0  0  0  0  0  0  0  0  0  0
    3.0540    4.2040    0.0000 C   0  0  0  0  0  0  0  0  0  0  0  0
    1.6840    3.5940    0.0000 C   0  0  0  0  0  0  0  0  0  0  0  0
    1.5270    2.1020    0.0000 C   0  0  0  0  0  0  0  0  0  0  0  0
    0.4700    4.4750    0.0000 O   0  0  0  0  0  0  0  0  0  0  0  0
  1  2  1  0  0  0  0
  2  3  1  0  0  0  0
  2  7  2  0  0  0  0
  3  4  2  0  0  0  0
  4  5  1  0  0  0  0
  5  6  2  0  0  0  0
  5  8  1  0  0  0  0
  6  7  1  0  0  0  0
  8  9  1  0  0  0  0
  8 15  1  0  0  0  0
  9 10  1  0  0  0  0
 10 11  2  0  0  0  0
 10 14  1  0  0  0  0
 11 12  1  0  0  0  0
 12 13  1  0  0  0  0
 13 14  1  0  0  0  0
 15 16  1  0  0  0  0
 15 20  2  0  0  0  0
 16 17  2  0  0  0  0
 17 18  1  0  0  0  0
 18 19  2  0  0  0  0
 19 20  1  0  0  0  0
 19 21  1  0  0  0  0
M  END
>  <n>
494

>  <SMILES>
Oc1cc(N(CC=2NCCN=2)c2ccc(cc2)C)ccc1

>  <IC50>
>1000

>  <Class>
0

>  <NAME>
PHENTOLAMINE

>  <INCHI_KEY>
MRBDMNSDAVCSSF-UHFFFAOYSA-N

>  <Reference>
Mitigating the inhibition of human Bile Salt Export Pump by drugs_ opportunities provided by physicochemical property modulation,  in-silico modeling and structural modification_SI

$$$$
PHTHALYLSULFACETAMIDE
  MOE2013           2D

 25 26  0  0  0  0  0  0  0  0999 V2000
   11.6910   -2.2500    0.0000 C   0  0  0  0  0  0  0  0  0  0  0  0
   10.3920   -3.0000    0.0000 C   0  0  0  0  0  0  0  0  0  0  0  0
   10.3920   -4.5000    0.0000 O   0  0  0  0  0  0  0  0  0  0  0  0
    9.0930   -2.2500    0.0000 N   0  0  0  0  0  0  0  0  0  0  0  0
    7.7940   -3.0000    0.0000 S   0  0  0  0  0  0  0  0  0  0  0  0
    6.8300   -4.1490    0.0000 O   0  0  0  0  0  0  0  0  0  0  0  0
    8.7580   -4.1490    0.0000 O   0  0  0  0  0  0  0  0  0  0  0  0
    6.4950   -2.2500    0.0000 C   0  0  0  0  0  0  0  0  0  0  0  0
    6.4950   -0.7500    0.0000 C   0  0  0  0  0  0  0  0  0  0  0  0
    5.1960    0.0000    0.0000 C   0  0  0  0  0  0  0  0  0  0  0  0
    3.8970   -0.7500    0.0000 C   0  0  0  0  0  0  0  0  0  0  0  0
    3.8970   -2.2500    0.0000 C   0  0  0  0  0  0  0  0  0  0  0  0
    5.1960   -3.0000    0.0000 C   0  0  0  0  0  0  0  0  0  0  0  0
    2.5980    0.0000    0.0000 N   0  0  0  0  0  0  0  0  0  0  0  0
    1.2990   -0.7500    0.0000 C   0  0  0  0  0  0  0  0  0  0  0  0
    1.2990   -2.2500    0.0000 O   0  0  0  0  0  0  0  0  0  0  0  0
    0.0000    0.0000    0.0000 C   0  0  0  0  0  0  0  0  0  0  0  0
    0.0000    1.5000    0.0000 C   0  0  0  0  0  0  0  0  0  0  0  0
   -1.2990    2.2500    0.0000 C   0  0  0  0  0  0  0  0  0  0  0  0
   -2.5980    1.5000    0.0000 C   0  0  0  0  0  0  0  0  0  0  0  0
   -2.5980    0.0000    0.0000 C   0  0  0  0  0  0  0  0  0  0  0  0
   -1.2990   -0.7500    0.0000 C   0  0  0  0  0  0  0  0  0  0  0  0
   -1.2990   -2.2500    0.0000 C   0  0  0  0  0  0  0  0  0  0  0  0
   -2.5980   -3.0000    0.0000 O   0  0  0  0  0  0  0  0  0  0  0  0
    0.0000   -3.0000    0.0000 O   0  0  0  0  0  0  0  0  0  0  0  0
  1  2  1  0  0  0  0
  2  3  2  0  0  0  0
  2  4  1  0  0  0  0
  4  5  1  0  0  0  0
  5  6  2  0  0  0  0
  5  7  2  0  0  0  0
  5  8  1  0  0  0  0
  8  9  1  0  0  0  0
  8 13  2  0  0  0  0
  9 10  2  0  0  0  0
 10 11  1  0  0  0  0
 11 12  2  0  0  0  0
 11 14  1  0  0  0  0
 12 13  1  0  0  0  0
 14 15  1  0  0  0  0
 15 16  2  0  0  0  0
 15 17  1  0  0  0  0
 17 18  1  0  0  0  0
 17 22  2  0  0  0  0
 18 19  2  0  0  0  0
 19 20  1  0  0  0  0
 20 21  2  0  0  0  0
 21 22  1  0  0  0  0
 22 23  1  0  0  0  0
 23 24  2  0  0  0  0
 23 25  1  0  0  0  0
M  END
>  <n>
496

>  <SMILES>
S(=O)(=O)(NC(=O)C)c1ccc(NC(=O)c2ccccc2C(O)=O)cc1

>  <IC50>
>1000

>  <Class>
0

>  <NAME>
PHTHALYLSULFACETAMIDE

>  <INCHI_KEY>
SNWQKAWITMVCQW-UHFFFAOYSA-N

>  <Reference>
Mitigating the inhibition of human Bile Salt Export Pump by drugs_ opportunities provided by physicochemical property modulation,  in-silico modeling and structural modification_SI

$$$$
PHYTOMENADIONE
  MOE2013           2D

 33 34  0  0  1  0  0  0  0  0999 V2000
    1.2990   -0.7500    0.0000 C   0  0  0  0  0  0  0  0  0  0  0  0
    0.0000    0.0000    0.0000 C   0  0  0  0  0  0  0  0  0  0  0  0
    0.0000    1.5000    0.0000 C   0  0  0  0  0  0  0  0  0  0  0  0
   -1.2990    2.2500    0.0000 C   0  0  0  0  0  0  0  0  0  0  0  0
   -1.2990    3.7500    0.0000 O   0  0  0  0  0  0  0  0  0  0  0  0
   -2.5980    1.5000    0.0000 C   0  0  0  0  0  0  0  0  0  0  0  0
   -3.8970    2.2500    0.0000 C   0  0  0  0  0  0  0  0  0  0  0  0
   -5.1960    1.5000    0.0000 C   0  0  0  0  0  0  0  0  0  0  0  0
   -5.1960    0.0000    0.0000 C   0  0  0  0  0  0  0  0  0  0  0  0
   -3.8970   -0.7500    0.0000 C   0  0  0  0  0  0  0  0  0  0  0  0
   -2.5980    0.0000    0.0000 C   0  0  0  0  0  0  0  0  0  0  0  0
   -1.2990   -0.7500    0.0000 C   0  0  0  0  0  0  0  0  0  0  0  0
   -1.2990   -2.2500    0.0000 O   0  0  0  0  0  0  0  0  0  0  0  0
    1.2990    2.2500    0.0000 C   0  0  0  0  0  0  0  0  0  0  0  0
    2.5980    1.5000    0.0000 C   0  0  0  0  0  0  0  0  0  0  0  0
    3.8970    2.2500    0.0000 C   0  0  0  0  0  0  0  0  0  0  0  0
    3.8970    3.7500    0.0000 C   0  0  0  0  0  0  0  0  0  0  0  0
    5.1960    1.5000    0.0000 C   0  0  0  0  0  0  0  0  0  0  0  0
    6.4950    2.2500    0.0000 C   0  0  0  0  0  0  0  0  0  0  0  0
    7.7940    1.5000    0.0000 C   0  0  0  0  0  0  0  0  0  0  0  0
    9.0930    2.2500    0.0000 C   0  0  3  0  0  0  0  0  0  0  0  0
    9.0930    3.7500    0.0000 C   0  0  0  0  0  0  0  0  0  0  0  0
   10.3920    1.5000    0.0000 C   0  0  0  0  0  0  0  0  0  0  0  0
   11.6910    2.2500    0.0000 C   0  0  0  0  0  0  0  0  0  0  0  0
   12.9900    1.5000    0.0000 C   0  0  0  0  0  0  0  0  0  0  0  0
   14.2890    2.2500    0.0000 C   0  0  3  0  0  0  0  0  0  0  0  0
   14.2890    3.7500    0.0000 C   0  0  0  0  0  0  0  0  0  0  0  0
   15.5880    1.5000    0.0000 C   0  0  0  0  0  0  0  0  0  0  0  0
   16.8880    2.2500    0.0000 C   0  0  0  0  0  0  0  0  0  0  0  0
   18.1860    1.5000    0.0000 C   0  0  0  0  0  0  0  0  0  0  0  0
   19.4860    2.2500    0.0000 C   0  0  0  0  0  0  0  0  0  0  0  0
   20.7850    1.5000    0.0000 C   0  0  0  0  0  0  0  0  0  0  0  0
   19.4860    3.7500    0.0000 C   0  0  0  0  0  0  0  0  0  0  0  0
  1  2  1  0  0  0  0
  2  3  2  0  0  0  0
  2 12  1  0  0  0  0
  3  4  1  0  0  0  0
  3 14  1  0  0  0  0
  4  5  2  0  0  0  0
  4  6  1  0  0  0  0
  6  7  1  0  0  0  0
  6 11  2  0  0  0  0
  7  8  2  0  0  0  0
  8  9  1  0  0  0  0
  9 10  2  0  0  0  0
 10 11  1  0  0  0  0
 11 12  1  0  0  0  0
 12 13  2  0  0  0  0
 14 15  1  0  0  0  0
 15 16  2  0  0  0  0
 16 17  1  0  0  0  0
 16 18  1  0  0  0  0
 18 19  1  0  0  0  0
 19 20  1  0  0  0  0
 20 21  1  0  0  0  0
 21 22  1  0  0  0  0
 21 23  1  0  0  0  0
 23 24  1  0  0  0  0
 24 25  1  0  0  0  0
 25 26  1  0  0  0  0
 26 27  1  0  0  0  0
 26 28  1  0  0  0  0
 28 29  1  0  0  0  0
 29 30  1  0  0  0  0
 30 31  1  0  0  0  0
 31 32  1  0  0  0  0
 31 33  1  0  0  0  0
M  END
>  <n>
497

>  <SMILES>
O=C1c2c(cccc2)C(=O)C(C)=C1C\C=C(\CCCC(CCCC(CCCC(C)C)C)C)/C

>  <IC50>
>1000

>  <Class>
0

>  <NAME>
PHYTOMENADIONE

>  <INCHI_KEY>
MBWXNTAXLNYFJB-LKUDQCMESA-N

>  <Reference>
Mitigating the inhibition of human Bile Salt Export Pump by drugs_ opportunities provided by physicochemical property modulation,  in-silico modeling and structural modification_SI

$$$$
Picotamide
  MOE2013           2D

 28 30  0  0  0  0  0  0  0  0999 V2000
    0.0000    0.0000    0.0000 C   0  0  0  0  0  0  0  0  0  0  0  0
    0.0000    1.5000    0.0000 C   0  0  0  0  0  0  0  0  0  0  0  0
    1.2990    2.2500    0.0000 C   0  0  0  0  0  0  0  0  0  0  0  0
    1.2990    3.7500    0.0000 N   0  0  0  0  0  0  0  0  0  0  0  0
    2.5980    4.5000    0.0000 C   0  0  0  0  0  0  0  0  0  0  0  0
    2.5980    6.0000    0.0000 C   0  0  0  0  0  0  0  0  0  0  0  0
    3.8970    6.7500    0.0000 C   0  0  0  0  0  0  0  0  0  0  0  0
    3.8970    8.2500    0.0000 C   0  0  0  0  0  0  0  0  0  0  0  0
    2.5980    9.0000    0.0000 C   0  0  0  0  0  0  0  0  0  0  0  0
    1.2990    8.2500    0.0000 N   0  0  0  0  0  0  0  0  0  0  0  0
    1.2990    6.7500    0.0000 C   0  0  0  0  0  0  0  0  0  0  0  0
    2.5980    1.5000    0.0000 O   0  0  0  0  0  0  0  0  0  0  0  0
   -1.2990    2.2500    0.0000 C   0  0  0  0  0  0  0  0  0  0  0  0
   -2.5980    1.5000    0.0000 C   0  0  0  0  0  0  0  0  0  0  0  0
   -2.5980    0.0000    0.0000 C   0  0  0  0  0  0  0  0  0  0  0  0
   -1.2990   -0.7500    0.0000 C   0  0  0  0  0  0  0  0  0  0  0  0
   -1.2990   -2.2500    0.0000 C   0  0  0  0  0  0  0  0  0  0  0  0
   -2.5980   -3.0000    0.0000 N   0  0  0  0  0  0  0  0  0  0  0  0
   -2.5980   -4.5000    0.0000 C   0  0  0  0  0  0  0  0  0  0  0  0
   -3.8970   -5.2500    0.0000 C   0  0  0  0  0  0  0  0  0  0  0  0
   -5.1960   -4.5000    0.0000 C   0  0  0  0  0  0  0  0  0  0  0  0
   -6.4950   -5.2500    0.0000 C   0  0  0  0  0  0  0  0  0  0  0  0
   -6.4950   -6.7500    0.0000 C   0  0  0  0  0  0  0  0  0  0  0  0
   -5.1960   -7.5000    0.0000 N   0  0  0  0  0  0  0  0  0  0  0  0
   -3.8970   -6.7500    0.0000 C   0  0  0  0  0  0  0  0  0  0  0  0
    0.0000   -3.0000    0.0000 O   0  0  0  0  0  0  0  0  0  0  0  0
   -3.8970   -0.7500    0.0000 O   0  0  0  0  0  0  0  0  0  0  0  0
   -5.1960    0.0000    0.0000 C   0  0  0  0  0  0  0  0  0  0  0  0
  1  2  1  0  0  0  0
  1 16  2  0  0  0  0
  2  3  1  0  0  0  0
  2 13  2  0  0  0  0
  3  4  1  0  0  0  0
  3 12  2  0  0  0  0
  4  5  1  0  0  0  0
  5  6  1  0  0  0  0
  6  7  1  0  0  0  0
  6 11  2  0  0  0  0
  7  8  2  0  0  0  0
  8  9  1  0  0  0  0
  9 10  2  0  0  0  0
 10 11  1  0  0  0  0
 13 14  1  0  0  0  0
 14 15  2  0  0  0  0
 15 16  1  0  0  0  0
 15 27  1  0  0  0  0
 16 17  1  0  0  0  0
 17 18  1  0  0  0  0
 17 26  2  0  0  0  0
 18 19  1  0  0  0  0
 19 20  1  0  0  0  0
 20 21  1  0  0  0  0
 20 25  2  0  0  0  0
 21 22  2  0  0  0  0
 22 23  1  0  0  0  0
 23 24  2  0  0  0  0
 24 25  1  0  0  0  0
 27 28  1  0  0  0  0
M  END
>  <n>
62

>  <IC50>
441

>  <Class>
0

>  <NAME>
PICOTAMIDE

>  <INCHI_KEY>
KYWCWBXGRWWINE-UHFFFAOYSA-N

>  <Reference>
Dawson

$$$$
PIMOZIDE
  MOE2013           2D

 34 38  0  0  0  0  0  0  0  0999 V2000
    2.5980    1.5000    0.0000 C   0  0  0  0  0  0  0  0  0  0  0  0
    2.5980    0.0000    0.0000 C   0  0  0  0  0  0  0  0  0  0  0  0
    1.2990   -0.7500    0.0000 C   0  0  0  0  0  0  0  0  0  0  0  0
    0.0000    0.0000    0.0000 C   0  0  0  0  0  0  0  0  0  0  0  0
    0.0000    1.5000    0.0000 C   0  0  0  0  0  0  0  0  0  0  0  0
    1.2990    2.2500    0.0000 C   0  0  0  0  0  0  0  0  0  0  0  0
   -1.4270    1.9640    0.0000 N   0  0  0  0  0  0  0  0  0  0  0  0
   -2.3080    0.7500    0.0000 C   0  0  0  0  0  0  0  0  0  0  0  0
   -3.8080    0.7500    0.0000 O   0  0  0  0  0  0  0  0  0  0  0  0
   -1.4270   -0.4640    0.0000 N   0  0  0  0  0  0  0  0  0  0  0  0
   -1.8900   -1.8900    0.0000 C   0  0  0  0  0  0  0  0  0  0  0  0
   -3.3570   -2.2020    0.0000 C   0  0  0  0  0  0  0  0  0  0  0  0
   -3.8210   -3.6290    0.0000 C   0  0  0  0  0  0  0  0  0  0  0  0
   -2.8170   -4.7430    0.0000 N   0  0  0  0  0  0  0  0  0  0  0  0
   -1.3500   -4.4310    0.0000 C   0  0  0  0  0  0  0  0  0  0  0  0
   -0.8860   -3.0050    0.0000 C   0  0  0  0  0  0  0  0  0  0  0  0
   -3.2810   -6.1700    0.0000 C   0  0  0  0  0  0  0  0  0  0  0  0
   -4.7480   -6.4820    0.0000 C   0  0  0  0  0  0  0  0  0  0  0  0
   -5.2110   -7.9080    0.0000 C   0  0  0  0  0  0  0  0  0  0  0  0
   -6.6790   -8.2200    0.0000 C   0  0  0  0  0  0  0  0  0  0  0  0
   -7.1420   -9.6470    0.0000 C   0  0  0  0  0  0  0  0  0  0  0  0
   -8.6090   -9.9590    0.0000 C   0  0  0  0  0  0  0  0  0  0  0  0
   -9.0730  -11.3850    0.0000 C   0  0  0  0  0  0  0  0  0  0  0  0
   -8.0690  -12.5000    0.0000 C   0  0  0  0  0  0  0  0  0  0  0  0
   -6.6020  -12.1880    0.0000 C   0  0  0  0  0  0  0  0  0  0  0  0
   -6.1380  -10.7620    0.0000 C   0  0  0  0  0  0  0  0  0  0  0  0
   -8.5330  -13.9260    0.0000 F   0  0  0  0  0  0  0  0  0  0  0  0
   -7.6820   -7.1060    0.0000 C   0  0  0  0  0  0  0  0  0  0  0  0
   -7.2190   -5.6790    0.0000 C   0  0  0  0  0  0  0  0  0  0  0  0
   -8.2220   -4.5640    0.0000 C   0  0  0  0  0  0  0  0  0  0  0  0
   -9.6900   -4.8760    0.0000 C   0  0  0  0  0  0  0  0  0  0  0  0
  -10.1530   -6.3030    0.0000 C   0  0  0  0  0  0  0  0  0  0  0  0
   -9.1500   -7.4170    0.0000 C   0  0  0  0  0  0  0  0  0  0  0  0
  -10.6930   -3.7610    0.0000 F   0  0  0  0  0  0  0  0  0  0  0  0
  1  2  1  0  0  0  0
  1  6  2  0  0  0  0
  2  3  2  0  0  0  0
  3  4  1  0  0  0  0
  4  5  2  0  0  0  0
  4 10  1  0  0  0  0
  5  6  1  0  0  0  0
  5  7  1  0  0  0  0
  7  8  1  0  0  0  0
  8  9  2  0  0  0  0
  8 10  1  0  0  0  0
 10 11  1  0  0  0  0
 11 12  1  0  0  0  0
 11 16  1  0  0  0  0
 12 13  1  0  0  0  0
 13 14  1  0  0  0  0
 14 15  1  0  0  0  0
 14 17  1  0  0  0  0
 15 16  1  0  0  0  0
 17 18  1  0  0  0  0
 18 19  1  0  0  0  0
 19 20  1  0  0  0  0
 20 21  1  0  0  0  0
 20 28  1  0  0  0  0
 21 22  1  0  0  0  0
 21 26  2  0  0  0  0
 22 23  2  0  0  0  0
 23 24  1  0  0  0  0
 24 25  2  0  0  0  0
 24 27  1  0  0  0  0
 25 26  1  0  0  0  0
 28 29  1  0  0  0  0
 28 33  2  0  0  0  0
 29 30  2  0  0  0  0
 30 31  1  0  0  0  0
 31 32  2  0  0  0  0
 31 34  1  0  0  0  0
 32 33  1  0  0  0  0
M  END
>  <n>
498

>  <SMILES>
Fc1ccc(cc1)C(CCCN1CCC(N2c3c(NC2=O)cccc3)CC1)c1ccc(F)cc1

>  <IC50>
<10

>  <Class>
1

>  <NAME>
PIMOZIDE

>  <INCHI_KEY>
YVUQSNJEYSNKRX-UHFFFAOYSA-N

>  <Reference>
Mitigating the inhibition of human Bile Salt Export Pump by drugs_ opportunities provided by physicochemical property modulation,  in-silico modeling and structural modification_SI

$$$$
Pinacidil
  MOE2013           2D

 18 18  0  0  1  0  0  0  0  0999 V2000
    2.2690    1.5000    0.0000 C   0  0  0  0  0  0  0  0  0  0  0  0
    0.5370    1.5000    0.0000 C   0  0  0  0  0  0  0  0  0  0  0  0
    2.2690    0.5000    0.0000 C   0  0  0  0  0  0  0  0  0  0  0  0
    0.5370    0.5000    0.0000 C   0  0  0  0  0  0  0  0  0  0  0  0
    4.0010    4.5000    0.0000 C   0  0  0  0  0  0  0  0  0  0  0  0
    3.1350    7.0000    0.0000 C   0  0  0  0  0  0  0  0  0  0  0  0
    4.1350    6.0000    0.0000 C   0  0  0  0  0  0  0  0  0  0  0  0
    2.1350    6.0000    0.0000 C   0  0  0  0  0  0  0  0  0  0  0  0
    1.4030    2.0000    0.0000 C   0  0  0  0  0  0  0  0  0  0  0  0
    2.2690    3.5000    0.0000 C   0  0  0  0  0  0  0  0  0  0  0  0
    3.1350    5.0000    0.0000 C   0  0  3  0  0  0  0  0  0  0  0  0
    3.1350    6.0000    0.0000 C   0  0  0  0  0  0  0  0  0  0  0  0
    1.4030    3.0000    0.0000 N   0  0  0  0  0  0  0  0  0  0  0  0
    3.1350    3.0000    0.0000 N   0  0  0  0  0  0  0  0  0  0  0  0
    2.2690    4.5000    0.0000 N   0  0  0  0  0  0  0  0  0  0  0  0
    4.0010    3.5000    0.0000 C   0  0  0  0  0  0  0  0  0  0  0  0
    1.4030    0.0000    0.0000 N   0  0  0  0  0  0  0  0  0  0  0  0
    4.8670    4.0000    0.0000 N   0  0  0  0  0  0  0  0  0  0  0  0
  1  3  1  0  0  0  0
  1  9  2  0  0  0  0
  2  4  2  0  0  0  0
  2  9  1  0  0  0  0
  3 17  2  0  0  0  0
  4 17  1  0  0  0  0
  5 11  1  0  0  0  0
  6 12  1  0  0  0  0
  7 12  1  0  0  0  0
  8 12  1  0  0  0  0
  9 13  1  0  0  0  0
 10 13  1  0  0  0  0
 10 14  1  0  0  0  0
 10 15  2  0  0  0  0
 11 12  1  0  0  0  0
 11 15  1  0  0  0  0
 14 16  1  0  0  0  0
 16 18  3  0  0  0  0
M  END
>  <n>
63

>  <IC50>
348.1

>  <Class>
0

>  <NAME>
PINACIDIL

>  <INCHI_KEY>
AFJCNBBHEVLGCZ-UHFFFAOYSA-N

>  <Reference>
Dawson

$$$$
PIOGLITAZONE
  MOE2013           2D

 25 27  0  0  1  0  0  0  0  0999 V2000
    6.3400  -14.2410    0.0000 C   0  0  0  0  0  0  0  0  0  0  0  0
    6.4970  -12.7490    0.0000 C   0  0  0  0  0  0  0  0  0  0  0  0
    5.2840  -11.8670    0.0000 C   0  0  0  0  0  0  0  0  0  0  0  0
    5.4400  -10.3760    0.0000 C   0  0  0  0  0  0  0  0  0  0  0  0
    4.2270   -9.4940    0.0000 C   0  0  0  0  0  0  0  0  0  0  0  0
    2.8570  -10.1040    0.0000 C   0  0  0  0  0  0  0  0  0  0  0  0
    2.7000  -11.5960    0.0000 N   0  0  0  0  0  0  0  0  0  0  0  0
    3.9130  -12.4770    0.0000 C   0  0  0  0  0  0  0  0  0  0  0  0
    1.6430   -9.2220    0.0000 C   0  0  0  0  0  0  0  0  0  0  0  0
    1.8000   -7.7300    0.0000 C   0  0  0  0  0  0  0  0  0  0  0  0
    0.5860   -6.8490    0.0000 O   0  0  0  0  0  0  0  0  0  0  0  0
    0.7430   -5.3570    0.0000 C   0  0  0  0  0  0  0  0  0  0  0  0
    2.1140   -4.7470    0.0000 C   0  0  0  0  0  0  0  0  0  0  0  0
    2.2700   -3.2550    0.0000 C   0  0  0  0  0  0  0  0  0  0  0  0
    1.0570   -2.3740    0.0000 C   0  0  0  0  0  0  0  0  0  0  0  0
   -0.3140   -2.9840    0.0000 C   0  0  0  0  0  0  0  0  0  0  0  0
   -0.4700   -4.4750    0.0000 C   0  0  0  0  0  0  0  0  0  0  0  0
    1.2140   -0.8820    0.0000 C   0  0  0  0  0  0  0  0  0  0  0  0
    0.0000    0.0000    0.0000 C   0  0  3  0  0  0  0  0  0  0  0  0
    0.0000    1.5000    0.0000 C   0  0  0  0  0  0  0  0  0  0  0  0
    1.2140    2.3820    0.0000 O   0  0  0  0  0  0  0  0  0  0  0  0
   -1.4270    1.9640    0.0000 N   0  0  0  0  0  0  0  0  0  0  0  0
   -2.3080    0.7500    0.0000 C   0  0  0  0  0  0  0  0  0  0  0  0
   -3.8080    0.7500    0.0000 O   0  0  0  0  0  0  0  0  0  0  0  0
   -1.4270   -0.4640    0.0000 S   0  0  0  0  0  0  0  0  0  0  0  0
  1  2  1  0  0  0  0
  2  3  1  0  0  0  0
  3  4  1  0  0  0  0
  3  8  2  0  0  0  0
  4  5  2  0  0  0  0
  5  6  1  0  0  0  0
  6  7  2  0  0  0  0
  6  9  1  0  0  0  0
  7  8  1  0  0  0  0
  9 10  1  0  0  0  0
 10 11  1  0  0  0  0
 11 12  1  0  0  0  0
 12 13  1  0  0  0  0
 12 17  2  0  0  0  0
 13 14  2  0  0  0  0
 14 15  1  0  0  0  0
 15 16  2  0  0  0  0
 15 18  1  0  0  0  0
 16 17  1  0  0  0  0
 18 19  1  0  0  0  0
 19 20  1  0  0  0  0
 19 25  1  0  0  0  0
 20 21  2  0  0  0  0
 20 22  1  0  0  0  0
 22 23  1  0  0  0  0
 23 24  2  0  0  0  0
 23 25  1  0  0  0  0
M  END
>  <n>
499

>  <SMILES>
S1C(Cc2ccc(OCCc3ncc(cc3)CC)cc2)C(=O)NC1=O

>  <IC50>
0.2621

>  <Class>
1

>  <NAME>
PIOGLITAZONE

>  <INCHI_KEY>
HYAFETHFCAUJAY-UHFFFAOYSA-N

>  <Reference>
Mitigating, Dawson, Interference

$$$$
PIPERACILLIN
  MOE2013           2D

 36 39  0  0  1  0  0  0  0  0999 V2000
    1.9130  -12.9360    0.0000 C   0  0  0  0  0  0  0  0  0  0  0  0
    0.8530  -11.8750    0.0000 C   0  0  0  0  0  0  0  0  0  0  0  0
    1.2410  -10.4260    0.0000 N   0  0  0  0  0  0  0  0  0  0  0  0
    2.6900  -10.0380    0.0000 C   0  0  0  0  0  0  0  0  0  0  0  0
    3.0780   -8.5890    0.0000 C   0  0  0  0  0  0  0  0  0  0  0  0
    2.0170   -7.5290    0.0000 N   0  0  0  0  0  0  0  0  0  0  0  0
    0.5680   -7.9170    0.0000 C   0  0  0  0  0  0  0  0  0  0  0  0
   -0.4920   -6.8560    0.0000 O   0  0  0  0  0  0  0  0  0  0  0  0
    0.1800   -9.3660    0.0000 C   0  0  0  0  0  0  0  0  0  0  0  0
   -1.2690   -9.7540    0.0000 O   0  0  0  0  0  0  0  0  0  0  0  0
    2.4060   -6.0800    0.0000 C   0  0  0  0  0  0  0  0  0  0  0  0
    3.8540   -5.6920    0.0000 O   0  0  0  0  0  0  0  0  0  0  0  0
    1.3450   -5.0190    0.0000 N   0  0  0  0  0  0  0  0  0  0  0  0
    1.7330   -3.5700    0.0000 C   0  0  3  0  0  0  0  0  0  0  0  0
    3.1820   -3.1820    0.0000 C   0  0  0  0  0  0  0  0  0  0  0  0
    4.2430   -4.2430    0.0000 C   0  0  0  0  0  0  0  0  0  0  0  0
    5.6920   -3.8540    0.0000 C   0  0  0  0  0  0  0  0  0  0  0  0
    6.0800   -2.4060    0.0000 C   0  0  0  0  0  0  0  0  0  0  0  0
    5.0190   -1.3450    0.0000 C   0  0  0  0  0  0  0  0  0  0  0  0
    3.5700   -1.7330    0.0000 C   0  0  0  0  0  0  0  0  0  0  0  0
    0.6720   -2.5100    0.0000 C   0  0  0  0  0  0  0  0  0  0  0  0
   -0.7760   -2.8980    0.0000 O   0  0  0  0  0  0  0  0  0  0  0  0
    1.0610   -1.0610    0.0000 N   0  0  0  0  0  0  0  0  0  0  0  0
    0.0000    0.0000    0.0000 C   0  0  3  0  0  0  0  0  0  0  0  0
    0.0000    1.5000    0.0000 C   0  0  3  0  0  0  0  0  0  0  0  0
   -1.5000    1.5000    0.0000 N   0  0  0  0  0  0  0  0  0  0  0  0
   -1.5000    0.0000    0.0000 C   0  0  0  0  0  0  0  0  0  0  0  0
   -2.5610   -1.0610    0.0000 O   0  0  0  0  0  0  0  0  0  0  0  0
   -1.9640    2.9270    0.0000 C   0  0  3  0  0  0  0  0  0  0  0  0
   -0.7500    3.8080    0.0000 C   0  0  0  0  0  0  0  0  0  0  0  0
    0.4640    2.9270    0.0000 S   0  0  0  0  0  0  0  0  0  0  0  0
    0.2540    4.9230    0.0000 C   0  0  0  0  0  0  0  0  0  0  0  0
   -1.7540    4.9230    0.0000 C   0  0  0  0  0  0  0  0  0  0  0  0
   -3.3900    3.3900    0.0000 C   0  0  0  0  0  0  0  0  0  0  0  0
   -3.7020    4.8570    0.0000 O   0  0  0  0  0  0  0  0  0  0  0  0
   -4.5050    2.3860    0.0000 O   0  0  0  0  0  0  0  0  0  0  0  0
  1  2  1  0  0  0  0
  2  3  1  0  0  0  0
  3  4  1  0  0  0  0
  3  9  1  0  0  0  0
  4  5  1  0  0  0  0
  5  6  1  0  0  0  0
  6  7  1  0  0  0  0
  6 11  1  0  0  0  0
  7  8  2  0  0  0  0
  7  9  1  0  0  0  0
  9 10  2  0  0  0  0
 11 12  2  0  0  0  0
 11 13  1  0  0  0  0
 13 14  1  0  0  0  0
 14 15  1  0  0  0  0
 14 21  1  0  0  0  0
 15 16  1  0  0  0  0
 15 20  2  0  0  0  0
 16 17  2  0  0  0  0
 17 18  1  0  0  0  0
 18 19  2  0  0  0  0
 19 20  1  0  0  0  0
 21 22  2  0  0  0  0
 21 23  1  0  0  0  0
 23 24  1  0  0  0  0
 24 25  1  0  0  0  0
 24 27  1  0  0  0  0
 25 26  1  0  0  0  0
 25 31  1  0  0  0  0
 26 27  1  0  0  0  0
 26 29  1  0  0  0  0
 27 28  2  0  0  0  0
 29 30  1  0  0  0  0
 29 34  1  0  0  0  0
 30 31  1  0  0  0  0
 30 32  1  0  0  0  0
 30 33  1  0  0  0  0
 34 35  2  0  0  0  0
 34 36  1  0  0  0  0
M  END
>  <n>
500

>  <SMILES>
S1[C@H]2N([C@@H](C(O)=O)C1(C)C)C(=O)[C@H]2NC(=O)C(NC(=O)N1CCN(CC)C(=O)C1=O)c1ccccc1

>  <IC50>
197.4

>  <Class>
0

>  <NAME>
PIPERACILLIN

>  <INCHI_KEY>
IVBHGBMCVLDMKU-UVIOZBFDSA-N

>  <Reference>
Mitigating the inhibition of human Bile Salt Export Pump by drugs_ opportunities provided by physicochemical property modulation,  in-silico modeling and structural modification_SI

$$$$
PIPERONYL_BUTOXIDE
  MOE2013           2D

 24 25  0  0  0  0  0  0  0  0999 V2000
   18.1860    0.0000    0.0000 C   0  0  0  0  0  0  0  0  0  0  0  0
   16.8880   -0.7500    0.0000 C   0  0  0  0  0  0  0  0  0  0  0  0
   15.5880    0.0000    0.0000 C   0  0  0  0  0  0  0  0  0  0  0  0
   14.2890   -0.7500    0.0000 C   0  0  0  0  0  0  0  0  0  0  0  0
   12.9900    0.0000    0.0000 O   0  0  0  0  0  0  0  0  0  0  0  0
   11.6910   -0.7500    0.0000 C   0  0  0  0  0  0  0  0  0  0  0  0
   10.3920    0.0000    0.0000 C   0  0  0  0  0  0  0  0  0  0  0  0
    9.0930   -0.7500    0.0000 O   0  0  0  0  0  0  0  0  0  0  0  0
    7.7940    0.0000    0.0000 C   0  0  0  0  0  0  0  0  0  0  0  0
    6.4950   -0.7500    0.0000 C   0  0  0  0  0  0  0  0  0  0  0  0
    5.1960    0.0000    0.0000 O   0  0  0  0  0  0  0  0  0  0  0  0
    3.8970   -0.7500    0.0000 C   0  0  0  0  0  0  0  0  0  0  0  0
    2.5980    0.0000    0.0000 C   0  0  0  0  0  0  0  0  0  0  0  0
    1.2990   -0.7500    0.0000 C   0  0  0  0  0  0  0  0  0  0  0  0
    0.0000    0.0000    0.0000 C   0  0  0  0  0  0  0  0  0  0  0  0
    0.0000    1.5000    0.0000 C   0  0  0  0  0  0  0  0  0  0  0  0
    1.2990    2.2500    0.0000 C   0  0  0  0  0  0  0  0  0  0  0  0
    2.5980    1.5000    0.0000 C   0  0  0  0  0  0  0  0  0  0  0  0
    3.8970    2.2500    0.0000 C   0  0  0  0  0  0  0  0  0  0  0  0
    3.8970    3.7500    0.0000 C   0  0  0  0  0  0  0  0  0  0  0  0
    2.5980    4.5000    0.0000 C   0  0  0  0  0  0  0  0  0  0  0  0
   -1.4270    1.9640    0.0000 O   0  0  0  0  0  0  0  0  0  0  0  0
   -2.3080    0.7500    0.0000 C   0  0  0  0  0  0  0  0  0  0  0  0
   -1.4270   -0.4640    0.0000 O   0  0  0  0  0  0  0  0  0  0  0  0
  1  2  1  0  0  0  0
  2  3  1  0  0  0  0
  3  4  1  0  0  0  0
  4  5  1  0  0  0  0
  5  6  1  0  0  0  0
  6  7  1  0  0  0  0
  7  8  1  0  0  0  0
  8  9  1  0  0  0  0
  9 10  1  0  0  0  0
 10 11  1  0  0  0  0
 11 12  1  0  0  0  0
 12 13  1  0  0  0  0
 13 14  1  0  0  0  0
 13 18  2  0  0  0  0
 14 15  2  0  0  0  0
 15 16  1  0  0  0  0
 15 24  1  0  0  0  0
 16 17  2  0  0  0  0
 16 22  1  0  0  0  0
 17 18  1  0  0  0  0
 18 19  1  0  0  0  0
 19 20  1  0  0  0  0
 20 21  1  0  0  0  0
 22 23  1  0  0  0  0
 23 24  1  0  0  0  0
M  END
>  <n>
501

>  <SMILES>
O1c2cc(CCC)c(cc2OC1)COCCOCCOCCCC

>  <IC50>
<10

>  <Class>
1

>  <NAME>
PIPERONYL BUTOXIDE

>  <INCHI_KEY>
FIPWRIJSWJWJAI-UHFFFAOYSA-N

>  <Reference>
Mitigating the inhibition of human Bile Salt Export Pump by drugs_ opportunities provided by physicochemical property modulation,  in-silico modeling and structural modification_SI

$$$$
PIRACETAM
  MOE2013           2D

 10 10  0  0  0  0  0  0  0  0999 V2000
    0.0000    0.0000    0.0000 C   0  0  0  0  0  0  0  0  0  0  0  0
    0.0000    1.5000    0.0000 C   0  0  0  0  0  0  0  0  0  0  0  0
   -1.4270    1.9640    0.0000 C   0  0  0  0  0  0  0  0  0  0  0  0
   -1.8900    3.3900    0.0000 O   0  0  0  0  0  0  0  0  0  0  0  0
   -2.3080    0.7500    0.0000 N   0  0  0  0  0  0  0  0  0  0  0  0
   -1.4270   -0.4640    0.0000 C   0  0  0  0  0  0  0  0  0  0  0  0
   -3.8080    0.7500    0.0000 C   0  0  0  0  0  0  0  0  0  0  0  0
   -4.5580   -0.5490    0.0000 C   0  0  0  0  0  0  0  0  0  0  0  0
   -6.0580   -0.5490    0.0000 O   0  0  0  0  0  0  0  0  0  0  0  0
   -3.8080   -1.8480    0.0000 N   0  0  0  0  0  0  0  0  0  0  0  0
  1  2  1  0  0  0  0
  1  6  1  0  0  0  0
  2  3  1  0  0  0  0
  3  4  2  0  0  0  0
  3  5  1  0  0  0  0
  5  6  1  0  0  0  0
  5  7  1  0  0  0  0
  7  8  1  0  0  0  0
  8  9  2  0  0  0  0
  8 10  1  0  0  0  0
M  END
>  <n>
502

>  <SMILES>
O=C1N(CCC1)CC(=O)N

>  <IC50>
>1000

>  <Class>
0

>  <NAME>
PIRACETAM

>  <INCHI_KEY>
GMZVRMREEHBGGF-UHFFFAOYSA-N

>  <Reference>
Mitigating the inhibition of human Bile Salt Export Pump by drugs_ opportunities provided by physicochemical property modulation,  in-silico modeling and structural modification_SI

$$$$
PIRENZEPINE
  MOE2013           2D

 26 29  0  0  0  0  0  0  0  0999 V2000
    6.8690   -4.7500    0.0000 C   0  0  0  0  0  0  0  0  0  0  0  0
    5.5180   -4.0990    0.0000 N   0  0  0  0  0  0  0  0  0  0  0  0
    5.4060   -2.6030    0.0000 C   0  0  0  0  0  0  0  0  0  0  0  0
    4.0540   -1.9520    0.0000 C   0  0  0  0  0  0  0  0  0  0  0  0
    2.8150   -2.7980    0.0000 N   0  0  0  0  0  0  0  0  0  0  0  0
    2.9270   -4.2930    0.0000 C   0  0  0  0  0  0  0  0  0  0  0  0
    4.2790   -4.9440    0.0000 C   0  0  0  0  0  0  0  0  0  0  0  0
    1.4640   -2.1470    0.0000 C   0  0  0  0  0  0  0  0  0  0  0  0
    1.3520   -0.6510    0.0000 C   0  0  0  0  0  0  0  0  0  0  0  0
    2.5910    0.1940    0.0000 O   0  0  0  0  0  0  0  0  0  0  0  0
    0.0000    0.0000    0.0000 N   0  0  0  0  0  0  0  0  0  0  0  0
    0.0000    1.5000    0.0000 C   0  0  0  0  0  0  0  0  0  0  0  0
    1.3960    2.0480    0.0000 C   0  0  0  0  0  0  0  0  0  0  0  0
    1.6200    3.5310    0.0000 C   0  0  0  0  0  0  0  0  0  0  0  0
    0.4470    4.4660    0.0000 C   0  0  0  0  0  0  0  0  0  0  0  0
   -0.9490    3.9180    0.0000 C   0  0  0  0  0  0  0  0  0  0  0  0
   -1.1730    2.4350    0.0000 C   0  0  0  0  0  0  0  0  0  0  0  0
   -2.6350    2.1020    0.0000 C   0  0  0  0  0  0  0  0  0  0  0  0
   -3.5700    3.2740    0.0000 O   0  0  0  0  0  0  0  0  0  0  0  0
   -3.2860    0.7500    0.0000 N   0  0  0  0  0  0  0  0  0  0  0  0
   -2.6350   -0.6020    0.0000 C   0  0  0  0  0  0  0  0  0  0  0  0
   -1.1730   -0.9350    0.0000 C   0  0  0  0  0  0  0  0  0  0  0  0
   -0.7310   -2.3690    0.0000 N   0  0  0  0  0  0  0  0  0  0  0  0
   -1.7510   -3.4680    0.0000 C   0  0  0  0  0  0  0  0  0  0  0  0
   -3.2130   -3.1340    0.0000 C   0  0  0  0  0  0  0  0  0  0  0  0
   -3.6550   -1.7010    0.0000 C   0  0  0  0  0  0  0  0  0  0  0  0
  1  2  1  0  0  0  0
  2  3  1  0  0  0  0
  2  7  1  0  0  0  0
  3  4  1  0  0  0  0
  4  5  1  0  0  0  0
  5  6  1  0  0  0  0
  5  8  1  0  0  0  0
  6  7  1  0  0  0  0
  8  9  1  0  0  0  0
  9 10  2  0  0  0  0
  9 11  1  0  0  0  0
 11 12  1  0  0  0  0
 11 22  1  0  0  0  0
 12 13  1  0  0  0  0
 12 17  2  0  0  0  0
 13 14  2  0  0  0  0
 14 15  1  0  0  0  0
 15 16  2  0  0  0  0
 16 17  1  0  0  0  0
 17 18  1  0  0  0  0
 18 19  2  0  0  0  0
 18 20  1  0  0  0  0
 20 21  1  0  0  0  0
 21 22  1  0  0  0  0
 21 26  2  0  0  0  0
 22 23  2  0  0  0  0
 23 24  1  0  0  0  0
 24 25  2  0  0  0  0
 25 26  1  0  0  0  0
M  END
>  <n>
503

>  <SMILES>
O=C1Nc2cccnc2N(c2c1cccc2)C(=O)CN1CCN(CC1)C

>  <IC50>
>1000

>  <Class>
0

>  <NAME>
PIRENZEPINE

>  <INCHI_KEY>
RMHMFHUVIITRHF-UHFFFAOYSA-N

>  <Reference>
Mitigating the inhibition of human Bile Salt Export Pump by drugs_ opportunities provided by physicochemical property modulation,  in-silico modeling and structural modification_SI

$$$$
PIRETANIDE
  MOE2013           2D

 25 27  0  0  0  0  0  0  0  0999 V2000
    6.8520    3.0500    0.0000 C   0  0  0  0  0  0  0  0  0  0  0  0
    5.6380    3.9320    0.0000 C   0  0  0  0  0  0  0  0  0  0  0  0
    4.2680    3.3220    0.0000 C   0  0  0  0  0  0  0  0  0  0  0  0
    4.1110    1.8300    0.0000 C   0  0  0  0  0  0  0  0  0  0  0  0
    5.3240    0.9490    0.0000 C   0  0  0  0  0  0  0  0  0  0  0  0
    6.6950    1.5590    0.0000 C   0  0  0  0  0  0  0  0  0  0  0  0
    2.7410    1.2200    0.0000 O   0  0  0  0  0  0  0  0  0  0  0  0
    2.5840   -0.2720    0.0000 C   0  0  0  0  0  0  0  0  0  0  0  0
    1.2140   -0.8820    0.0000 C   0  0  0  0  0  0  0  0  0  0  0  0
    1.0570   -2.3740    0.0000 C   0  0  0  0  0  0  0  0  0  0  0  0
    2.2700   -3.2550    0.0000 C   0  0  0  0  0  0  0  0  0  0  0  0
    3.6410   -2.6450    0.0000 C   0  0  0  0  0  0  0  0  0  0  0  0
    3.7970   -1.1530    0.0000 C   0  0  0  0  0  0  0  0  0  0  0  0
    5.1680   -0.5430    0.0000 S   0  0  0  0  0  0  0  0  0  0  0  0
    6.3810   -1.4250    0.0000 O   0  0  0  0  0  0  0  0  0  0  0  0
    6.2470    0.4990    0.0000 O   0  0  0  0  0  0  0  0  0  0  0  0
    4.3290    0.7000    0.0000 N   0  0  0  0  0  0  0  0  0  0  0  0
    2.1140   -4.7470    0.0000 C   0  0  0  0  0  0  0  0  0  0  0  0
    0.7430   -5.3570    0.0000 O   0  0  0  0  0  0  0  0  0  0  0  0
    3.3270   -5.6290    0.0000 O   0  0  0  0  0  0  0  0  0  0  0  0
    0.0000    0.0000    0.0000 N   0  0  0  0  0  0  0  0  0  0  0  0
    0.0000    1.5000    0.0000 C   0  0  0  0  0  0  0  0  0  0  0  0
   -1.4270    1.9640    0.0000 C   0  0  0  0  0  0  0  0  0  0  0  0
   -2.3080    0.7500    0.0000 C   0  0  0  0  0  0  0  0  0  0  0  0
   -1.4270   -0.4640    0.0000 C   0  0  0  0  0  0  0  0  0  0  0  0
  1  2  1  0  0  0  0
  1  6  2  0  0  0  0
  2  3  2  0  0  0  0
  3  4  1  0  0  0  0
  4  5  2  0  0  0  0
  4  7  1  0  0  0  0
  5  6  1  0  0  0  0
  7  8  1  0  0  0  0
  8  9  1  0  0  0  0
  8 13  2  0  0  0  0
  9 10  2  0  0  0  0
  9 21  1  0  0  0  0
 10 11  1  0  0  0  0
 11 12  2  0  0  0  0
 11 18  1  0  0  0  0
 12 13  1  0  0  0  0
 13 14  1  0  0  0  0
 14 15  2  0  0  0  0
 14 16  2  0  0  0  0
 14 17  1  0  0  0  0
 18 19  2  0  0  0  0
 18 20  1  0  0  0  0
 21 22  1  0  0  0  0
 21 25  1  0  0  0  0
 22 23  1  0  0  0  0
 23 24  1  0  0  0  0
 24 25  1  0  0  0  0
M  END
>  <n>
504

>  <SMILES>
S(=O)(=O)(N)c1cc(cc(N2CCCC2)c1Oc1ccccc1)C(O)=O

>  <IC50>
>790.6

>  <Class>
0

>  <NAME>
PIRETANIDE

>  <INCHI_KEY>
UJEWTUDSLQGTOA-UHFFFAOYSA-N

>  <Reference>
Mitigating the inhibition of human Bile Salt Export Pump by drugs_ opportunities provided by physicochemical property modulation,  in-silico modeling and structural modification_SI

$$$$
PRACTOLOL
  MOE2013           2D

 19 19  0  0  1  0  0  0  0  0999 V2000
    5.1960   -7.5000    0.0000 C   0  0  0  0  0  0  0  0  0  0  0  0
    3.8970   -6.7500    0.0000 C   0  0  0  0  0  0  0  0  0  0  0  0
    2.5980   -7.5000    0.0000 C   0  0  0  0  0  0  0  0  0  0  0  0
    3.8970   -5.2500    0.0000 N   0  0  0  0  0  0  0  0  0  0  0  0
    2.5980   -4.5000    0.0000 C   0  0  0  0  0  0  0  0  0  0  0  0
    2.5980   -3.0000    0.0000 C   0  0  3  0  0  0  0  0  0  0  0  0
    1.2990   -2.2500    0.0000 C   0  0  0  0  0  0  0  0  0  0  0  0
    1.2990   -0.7500    0.0000 O   0  0  0  0  0  0  0  0  0  0  0  0
    0.0000    0.0000    0.0000 C   0  0  0  0  0  0  0  0  0  0  0  0
    0.0000    1.5000    0.0000 C   0  0  0  0  0  0  0  0  0  0  0  0
   -1.2990    2.2500    0.0000 C   0  0  0  0  0  0  0  0  0  0  0  0
   -2.5980    1.5000    0.0000 C   0  0  0  0  0  0  0  0  0  0  0  0
   -2.5980    0.0000    0.0000 C   0  0  0  0  0  0  0  0  0  0  0  0
   -1.2990   -0.7500    0.0000 C   0  0  0  0  0  0  0  0  0  0  0  0
   -3.8970    2.2500    0.0000 N   0  0  0  0  0  0  0  0  0  0  0  0
   -3.8970    3.7500    0.0000 C   0  0  0  0  0  0  0  0  0  0  0  0
   -5.1960    4.5000    0.0000 O   0  0  0  0  0  0  0  0  0  0  0  0
   -2.5980    4.5000    0.0000 C   0  0  0  0  0  0  0  0  0  0  0  0
    3.8970   -2.2500    0.0000 O   0  0  0  0  0  0  0  0  0  0  0  0
  1  2  1  0  0  0  0
  2  3  1  0  0  0  0
  2  4  1  0  0  0  0
  4  5  1  0  0  0  0
  5  6  1  0  0  0  0
  6  7  1  0  0  0  0
  6 19  1  0  0  0  0
  7  8  1  0  0  0  0
  8  9  1  0  0  0  0
  9 10  1  0  0  0  0
  9 14  2  0  0  0  0
 10 11  2  0  0  0  0
 11 12  1  0  0  0  0
 12 13  2  0  0  0  0
 12 15  1  0  0  0  0
 13 14  1  0  0  0  0
 15 16  1  0  0  0  0
 16 17  2  0  0  0  0
 16 18  1  0  0  0  0
M  END
>  <n>
505

>  <SMILES>
O(CC(O)CNC(C)C)c1ccc(NC(=O)C)cc1

>  <IC50>
>1000

>  <Class>
0

>  <NAME>
PRACTOLOL

>  <INCHI_KEY>
DURULFYMVIFBIR-UHFFFAOYSA-N

>  <Reference>
Mitigating, Dawson

$$$$
PRAZIQUANTEL
  MOE2013           2D

 23 26  0  0  1  0  0  0  0  0999 V2000
    2.5980    1.5000    0.0000 C   0  0  0  0  0  0  0  0  0  0  0  0
    2.5980    0.0000    0.0000 C   0  0  0  0  0  0  0  0  0  0  0  0
    1.2990   -0.7500    0.0000 C   0  0  0  0  0  0  0  0  0  0  0  0
    0.0000    0.0000    0.0000 C   0  0  0  0  0  0  0  0  0  0  0  0
    0.0000    1.5000    0.0000 C   0  0  0  0  0  0  0  0  0  0  0  0
    1.2990    2.2500    0.0000 C   0  0  0  0  0  0  0  0  0  0  0  0
   -1.2990    2.2500    0.0000 C   0  0  0  0  0  0  0  0  0  0  0  0
   -2.5980    1.5000    0.0000 C   0  0  0  0  0  0  0  0  0  0  0  0
   -2.5980    0.0000    0.0000 N   0  0  0  0  0  0  0  0  0  0  0  0
   -1.2990   -0.7500    0.0000 C   0  0  3  0  0  0  0  0  0  0  0  0
   -1.2990   -2.2500    0.0000 C   0  0  0  0  0  0  0  0  0  0  0  0
   -2.5980   -3.0000    0.0000 N   0  0  0  0  0  0  0  0  0  0  0  0
   -3.8970   -2.2500    0.0000 C   0  0  0  0  0  0  0  0  0  0  0  0
   -3.8970   -0.7500    0.0000 C   0  0  0  0  0  0  0  0  0  0  0  0
   -5.1960    0.0000    0.0000 O   0  0  0  0  0  0  0  0  0  0  0  0
   -2.5980   -4.5000    0.0000 C   0  0  0  0  0  0  0  0  0  0  0  0
   -1.2990   -5.2500    0.0000 O   0  0  0  0  0  0  0  0  0  0  0  0
   -3.8970   -5.2500    0.0000 C   0  0  0  0  0  0  0  0  0  0  0  0
   -5.1960   -4.5000    0.0000 C   0  0  0  0  0  0  0  0  0  0  0  0
   -6.4950   -5.2500    0.0000 C   0  0  0  0  0  0  0  0  0  0  0  0
   -6.4950   -6.7500    0.0000 C   0  0  0  0  0  0  0  0  0  0  0  0
   -5.1960   -7.5000    0.0000 C   0  0  0  0  0  0  0  0  0  0  0  0
   -3.8970   -6.7500    0.0000 C   0  0  0  0  0  0  0  0  0  0  0  0
  1  2  1  0  0  0  0
  1  6  2  0  0  0  0
  2  3  2  0  0  0  0
  3  4  1  0  0  0  0
  4  5  2  0  0  0  0
  4 10  1  0  0  0  0
  5  6  1  0  0  0  0
  5  7  1  0  0  0  0
  7  8  1  0  0  0  0
  8  9  1  0  0  0  0
  9 10  1  0  0  0  0
  9 14  1  0  0  0  0
 10 11  1  0  0  0  0
 11 12  1  0  0  0  0
 12 13  1  0  0  0  0
 12 16  1  0  0  0  0
 13 14  1  0  0  0  0
 14 15  2  0  0  0  0
 16 17  2  0  0  0  0
 16 18  1  0  0  0  0
 18 19  1  0  0  0  0
 18 23  1  0  0  0  0
 19 20  1  0  0  0  0
 20 21  1  0  0  0  0
 21 22  1  0  0  0  0
 22 23  1  0  0  0  0
M  END
>  <n>
506

>  <SMILES>
O=C1N2C(c3c(CC2)cccc3)CN(C1)C(=O)C1CCCCC1

>  <IC50>
60.27

>  <Class>
0

>  <NAME>
PRAZIQUANTEL

>  <INCHI_KEY>
FSVJFNAIGNNGKK-UHFFFAOYSA-N

>  <Reference>
Mitigating, Dawson

$$$$
PROBENECID
  MOE2013           2D

 19 19  0  0  0  0  0  0  0  0999 V2000
    3.8970   -5.2500    0.0000 C   0  0  0  0  0  0  0  0  0  0  0  0
    2.5980   -4.5000    0.0000 C   0  0  0  0  0  0  0  0  0  0  0  0
    2.5980   -3.0000    0.0000 C   0  0  0  0  0  0  0  0  0  0  0  0
    1.2990   -2.2500    0.0000 N   0  0  0  0  0  0  0  0  0  0  0  0
    0.0000   -3.0000    0.0000 C   0  0  0  0  0  0  0  0  0  0  0  0
    0.0000   -4.5000    0.0000 C   0  0  0  0  0  0  0  0  0  0  0  0
    1.2990   -5.2500    0.0000 C   0  0  0  0  0  0  0  0  0  0  0  0
    1.2990   -0.7500    0.0000 S   0  0  0  0  0  0  0  0  0  0  0  0
    2.7760   -1.0100    0.0000 O   0  0  0  0  0  0  0  0  0  0  0  0
    1.8120    0.6600    0.0000 O   0  0  0  0  0  0  0  0  0  0  0  0
    0.0000    0.0000    0.0000 C   0  0  0  0  0  0  0  0  0  0  0  0
    0.0000    1.5000    0.0000 C   0  0  0  0  0  0  0  0  0  0  0  0
   -1.2990    2.2500    0.0000 C   0  0  0  0  0  0  0  0  0  0  0  0
   -2.5980    1.5000    0.0000 C   0  0  0  0  0  0  0  0  0  0  0  0
   -2.5980    0.0000    0.0000 C   0  0  0  0  0  0  0  0  0  0  0  0
   -1.2990   -0.7500    0.0000 C   0  0  0  0  0  0  0  0  0  0  0  0
   -3.8970    2.2500    0.0000 C   0  0  0  0  0  0  0  0  0  0  0  0
   -3.8970    3.7500    0.0000 O   0  0  0  0  0  0  0  0  0  0  0  0
   -5.1960    1.5000    0.0000 O   0  0  0  0  0  0  0  0  0  0  0  0
  1  2  1  0  0  0  0
  2  3  1  0  0  0  0
  3  4  1  0  0  0  0
  4  5  1  0  0  0  0
  4  8  1  0  0  0  0
  5  6  1  0  0  0  0
  6  7  1  0  0  0  0
  8  9  2  0  0  0  0
  8 10  2  0  0  0  0
  8 11  1  0  0  0  0
 11 12  1  0  0  0  0
 11 16  2  0  0  0  0
 12 13  2  0  0  0  0
 13 14  1  0  0  0  0
 14 15  2  0  0  0  0
 14 17  1  0  0  0  0
 15 16  1  0  0  0  0
 17 18  2  0  0  0  0
 17 19  1  0  0  0  0
M  END
>  <n>
508

>  <SMILES>
S(=O)(=O)(N(CCC)CCC)c1ccc(cc1)C(O)=O

>  <IC50>
586.8

>  <Class>
0

>  <NAME>
PROBENECID

>  <INCHI_KEY>
DBABZHXKTCFAPX-UHFFFAOYSA-N

>  <Reference>
Mitigating, Dawson

$$$$
PROBUCOL
  MOE2013           2D

 35 36  0  0  0  0  0  0  0  0999 V2000
    2.5980    0.0000    0.0000 C   0  0  0  0  0  0  0  0  0  0  0  0
    1.2990   -0.7500    0.0000 C   0  0  0  0  0  0  0  0  0  0  0  0
    0.3350   -1.8990    0.0000 C   0  0  0  0  0  0  0  0  0  0  0  0
    2.2630   -1.8990    0.0000 C   0  0  0  0  0  0  0  0  0  0  0  0
    0.0000    0.0000    0.0000 C   0  0  0  0  0  0  0  0  0  0  0  0
    0.0000    1.5000    0.0000 C   0  0  0  0  0  0  0  0  0  0  0  0
   -1.2990    2.2500    0.0000 C   0  0  0  0  0  0  0  0  0  0  0  0
   -2.5980    1.5000    0.0000 C   0  0  0  0  0  0  0  0  0  0  0  0
   -2.5980    0.0000    0.0000 C   0  0  0  0  0  0  0  0  0  0  0  0
   -1.2990   -0.7500    0.0000 C   0  0  0  0  0  0  0  0  0  0  0  0
   -1.2990   -2.2500    0.0000 O   0  0  0  0  0  0  0  0  0  0  0  0
   -3.8970   -0.7500    0.0000 C   0  0  0  0  0  0  0  0  0  0  0  0
   -5.1960    0.0000    0.0000 C   0  0  0  0  0  0  0  0  0  0  0  0
   -4.8610   -1.8990    0.0000 C   0  0  0  0  0  0  0  0  0  0  0  0
   -2.9330   -1.8990    0.0000 C   0  0  0  0  0  0  0  0  0  0  0  0
   -1.2990    3.7500    0.0000 S   0  0  0  0  0  0  0  0  0  0  0  0
   -2.5980    4.5000    0.0000 C   0  0  0  0  0  0  0  0  0  0  0  0
   -4.0750    4.7600    0.0000 C   0  0  0  0  0  0  0  0  0  0  0  0
   -3.1110    3.0900    0.0000 C   0  0  0  0  0  0  0  0  0  0  0  0
   -2.5980    6.0000    0.0000 S   0  0  0  0  0  0  0  0  0  0  0  0
   -3.8970    6.7500    0.0000 C   0  0  0  0  0  0  0  0  0  0  0  0
   -3.8970    8.2500    0.0000 C   0  0  0  0  0  0  0  0  0  0  0  0
   -5.1960    9.0000    0.0000 C   0  0  0  0  0  0  0  0  0  0  0  0
   -6.4950    8.2500    0.0000 C   0  0  0  0  0  0  0  0  0  0  0  0
   -6.4950    6.7500    0.0000 C   0  0  0  0  0  0  0  0  0  0  0  0
   -5.1960    6.0000    0.0000 C   0  0  0  0  0  0  0  0  0  0  0  0
   -7.7940    6.0000    0.0000 C   0  0  0  0  0  0  0  0  0  0  0  0
   -9.0930    6.7500    0.0000 C   0  0  0  0  0  0  0  0  0  0  0  0
   -8.7580    4.8510    0.0000 C   0  0  0  0  0  0  0  0  0  0  0  0
   -6.8300    4.8510    0.0000 C   0  0  0  0  0  0  0  0  0  0  0  0
   -7.7940    9.0000    0.0000 O   0  0  0  0  0  0  0  0  0  0  0  0
   -5.1960   10.5000    0.0000 C   0  0  0  0  0  0  0  0  0  0  0  0
   -6.4950   11.2500    0.0000 C   0  0  0  0  0  0  0  0  0  0  0  0
   -3.7190   10.2400    0.0000 C   0  0  0  0  0  0  0  0  0  0  0  0
   -4.6830   11.9100    0.0000 C   0  0  0  0  0  0  0  0  0  0  0  0
  1  2  1  0  0  0  0
  2  3  1  0  0  0  0
  2  4  1  0  0  0  0
  2  5  1  0  0  0  0
  5  6  1  0  0  0  0
  5 10  2  0  0  0  0
  6  7  2  0  0  0  0
  7  8  1  0  0  0  0
  7 16  1  0  0  0  0
  8  9  2  0  0  0  0
  9 10  1  0  0  0  0
  9 12  1  0  0  0  0
 10 11  1  0  0  0  0
 12 13  1  0  0  0  0
 12 14  1  0  0  0  0
 12 15  1  0  0  0  0
 16 17  1  0  0  0  0
 17 18  1  0  0  0  0
 17 19  1  0  0  0  0
 17 20  1  0  0  0  0
 20 21  1  0  0  0  0
 21 22  1  0  0  0  0
 21 26  2  0  0  0  0
 22 23  2  0  0  0  0
 23 24  1  0  0  0  0
 23 32  1  0  0  0  0
 24 25  2  0  0  0  0
 24 31  1  0  0  0  0
 25 26  1  0  0  0  0
 25 27  1  0  0  0  0
 27 28  1  0  0  0  0
 27 29  1  0  0  0  0
 27 30  1  0  0  0  0
 32 33  1  0  0  0  0
 32 34  1  0  0  0  0
 32 35  1  0  0  0  0
M  END
>  <n>
509

>  <SMILES>
S(C(Sc1cc(C(C)(C)C)c(O)c(c1)C(C)(C)C)(C)C)c1cc(C(C)(C)C)c(O)c(c1)C(C)(C)C

>  <IC50>
>1000

>  <Class>
0

>  <NAME>
PROBUCOL

>  <INCHI_KEY>
FYPMFJGVHOHGLL-UHFFFAOYSA-N

>  <Reference>
Mitigating the inhibition of human Bile Salt Export Pump by drugs_ opportunities provided by physicochemical property modulation,  in-silico modeling and structural modification_SI

$$$$
PROCAINE
  MOE2013           2D

 17 17  0  0  0  0  0  0  0  0999 V2000
    5.1960   -7.5000    0.0000 C   0  0  0  0  0  0  0  0  0  0  0  0
    3.8970   -6.7500    0.0000 C   0  0  0  0  0  0  0  0  0  0  0  0
    3.8970   -5.2500    0.0000 N   0  0  0  0  0  0  0  0  0  0  0  0
    5.1960   -4.5000    0.0000 C   0  0  0  0  0  0  0  0  0  0  0  0
    6.4950   -5.2500    0.0000 C   0  0  0  0  0  0  0  0  0  0  0  0
    2.5980   -4.5000    0.0000 C   0  0  0  0  0  0  0  0  0  0  0  0
    2.5980   -3.0000    0.0000 C   0  0  0  0  0  0  0  0  0  0  0  0
    1.2990   -2.2500    0.0000 O   0  0  0  0  0  0  0  0  0  0  0  0
    1.2990   -0.7500    0.0000 C   0  0  0  0  0  0  0  0  0  0  0  0
    2.5980    0.0000    0.0000 O   0  0  0  0  0  0  0  0  0  0  0  0
    0.0000    0.0000    0.0000 C   0  0  0  0  0  0  0  0  0  0  0  0
    0.0000    1.5000    0.0000 C   0  0  0  0  0  0  0  0  0  0  0  0
   -1.2990    2.2500    0.0000 C   0  0  0  0  0  0  0  0  0  0  0  0
   -2.5980    1.5000    0.0000 C   0  0  0  0  0  0  0  0  0  0  0  0
   -2.5980    0.0000    0.0000 C   0  0  0  0  0  0  0  0  0  0  0  0
   -1.2990   -0.7500    0.0000 C   0  0  0  0  0  0  0  0  0  0  0  0
   -3.8970    2.2500    0.0000 N   0  0  0  0  0  0  0  0  0  0  0  0
  1  2  1  0  0  0  0
  2  3  1  0  0  0  0
  3  4  1  0  0  0  0
  3  6  1  0  0  0  0
  4  5  1  0  0  0  0
  6  7  1  0  0  0  0
  7  8  1  0  0  0  0
  8  9  1  0  0  0  0
  9 10  2  0  0  0  0
  9 11  1  0  0  0  0
 11 12  1  0  0  0  0
 11 16  2  0  0  0  0
 12 13  2  0  0  0  0
 13 14  1  0  0  0  0
 14 15  2  0  0  0  0
 14 17  1  0  0  0  0
 15 16  1  0  0  0  0
M  END
>  <n>
510

>  <SMILES>
O(C(=O)c1ccc(N)cc1)CCN(CC)CC

>  <IC50>
>1000

>  <Class>
0

>  <NAME>
PROCAINE

>  <INCHI_KEY>
MFDFERRIHVXMIY-UHFFFAOYSA-N

>  <Reference>
Mitigating the inhibition of human Bile Salt Export Pump by drugs_ opportunities provided by physicochemical property modulation,  in-silico modeling and structural modification_SI

$$$$
PROCHLORPERAZINE
  MOE2013           2D

 25 28  0  0  1  0  0  0  0  0999 V2000
    9.0930    2.2500    0.0000 C   0  0  0  0  0  0  0  0  0  0  0  0
    7.7940    1.5000    0.0000 N   0  0  0  0  0  0  0  0  0  0  0  0
    6.4950    2.2500    0.0000 C   0  0  0  0  0  0  0  0  0  0  0  0
    5.1960    1.5000    0.0000 C   0  0  0  0  0  0  0  0  0  0  0  0
    5.1960    0.0000    0.0000 N   0  0  0  0  0  0  0  0  0  0  0  0
    6.4950   -0.7500    0.0000 C   0  0  0  0  0  0  0  0  0  0  0  0
    7.7940    0.0000    0.0000 C   0  0  0  0  0  0  0  0  0  0  0  0
    3.8970   -0.7500    0.0000 C   0  0  0  0  0  0  0  0  0  0  0  0
    2.5980    0.0000    0.0000 C   0  0  0  0  0  0  0  0  0  0  0  0
    1.2990   -0.7500    0.0000 C   0  0  0  0  0  0  0  0  0  0  0  0
    0.0000    0.0000    0.0000 N   0  0  3  0  0  0  0  0  0  0  0  0
    0.0000    1.5000    0.0000 C   0  0  0  0  0  0  0  0  0  0  0  0
    1.2990    2.2500    0.0000 C   0  0  0  0  0  0  0  0  0  0  0  0
    1.2990    3.7500    0.0000 C   0  0  0  0  0  0  0  0  0  0  0  0
    0.0000    4.5000    0.0000 C   0  0  0  0  0  0  0  0  0  0  0  0
   -1.2990    3.7500    0.0000 C   0  0  0  0  0  0  0  0  0  0  0  0
   -1.2990    2.2500    0.0000 C   0  0  0  0  0  0  0  0  0  0  0  0
   -2.5980    1.5000    0.0000 S   0  0  0  0  0  0  0  0  0  0  0  0
   -2.5980    0.0000    0.0000 C   0  0  0  0  0  0  0  0  0  0  0  0
   -1.2990   -0.7500    0.0000 C   0  0  0  0  0  0  0  0  0  0  0  0
   -1.2990   -2.2500    0.0000 C   0  0  0  0  0  0  0  0  0  0  0  0
   -2.5980   -3.0000    0.0000 C   0  0  0  0  0  0  0  0  0  0  0  0
   -3.8970   -2.2500    0.0000 C   0  0  0  0  0  0  0  0  0  0  0  0
   -3.8970   -0.7500    0.0000 C   0  0  0  0  0  0  0  0  0  0  0  0
   -2.5980   -4.5000    0.0000 Cl  0  0  0  0  0  0  0  0  0  0  0  0
  1  2  1  0  0  0  0
  2  3  1  0  0  0  0
  2  7  1  0  0  0  0
  3  4  1  0  0  0  0
  4  5  1  0  0  0  0
  5  6  1  0  0  0  0
  5  8  1  0  0  0  0
  6  7  1  0  0  0  0
  8  9  1  0  0  0  0
  9 10  1  0  0  0  0
 10 11  1  0  0  0  0
 11 12  1  0  0  0  0
 11 20  1  0  0  0  0
 12 13  1  0  0  0  0
 12 17  2  0  0  0  0
 13 14  2  0  0  0  0
 14 15  1  0  0  0  0
 15 16  2  0  0  0  0
 16 17  1  0  0  0  0
 17 18  1  0  0  0  0
 18 19  1  0  0  0  0
 19 20  1  0  0  0  0
 19 24  2  0  0  0  0
 20 21  2  0  0  0  0
 21 22  1  0  0  0  0
 22 23  2  0  0  0  0
 22 25  1  0  0  0  0
 23 24  1  0  0  0  0
M  END
>  <n>
511

>  <SMILES>
Clc1cc2N(c3c(Sc2cc1)cccc3)CCCN1CCN(CC1)C

>  <IC50>
<10

>  <Class>
1

>  <NAME>
PROCHLORPERAZINE

>  <INCHI_KEY>
WIKYUJGCLQQFNW-UHFFFAOYSA-N

>  <Reference>
Mitigating the inhibition of human Bile Salt Export Pump by drugs_ opportunities provided by physicochemical property modulation,  in-silico modeling and structural modification_SI

$$$$
PROGESTERONE
  MOE2013           2D

 23 26  0  0  1  0  0  0  0  0999 V2000
    3.3570    3.7020    0.0000 C   0  0  0  0  0  0  0  0  0  0  0  0
    1.8900    3.3900    0.0000 C   0  0  0  0  0  0  0  0  0  0  0  0
    0.8860    4.5050    0.0000 O   0  0  0  0  0  0  0  0  0  0  0  0
    1.4270    1.9640    0.0000 C   0  0  3  0  0  0  0  0  0  0  0  0
    2.3080    0.7500    0.0000 C   0  0  0  0  0  0  0  0  0  0  0  0
    1.4270   -0.4640    0.0000 C   0  0  0  0  0  0  0  0  0  0  0  0
    0.0000    0.0000    0.0000 C   0  0  3  0  0  0  0  0  0  0  0  0
    0.0000    1.5000    0.0000 C   0  0  2  0  0  0  0  0  0  0  0  0
   -1.2990    2.2500    0.0000 C   0  0  0  0  0  0  0  0  0  0  0  0
   -2.5980    1.5000    0.0000 C   0  0  0  0  0  0  0  0  0  0  0  0
   -2.5980    0.0000    0.0000 C   0  0  3  0  0  0  0  0  0  0  0  0
   -1.2990   -0.7500    0.0000 C   0  0  3  0  0  0  0  0  0  0  0  0
   -1.2990   -2.2500    0.0000 C   0  0  0  0  0  0  0  0  0  0  0  0
   -2.5980   -3.0000    0.0000 C   0  0  0  0  0  0  0  0  0  0  0  0
   -3.8970   -2.2500    0.0000 C   0  0  0  0  0  0  0  0  0  0  0  0
   -5.1960   -3.0000    0.0000 C   0  0  0  0  0  0  0  0  0  0  0  0
   -6.4950   -2.2500    0.0000 C   0  0  0  0  0  0  0  0  0  0  0  0
   -7.7940   -3.0000    0.0000 O   0  0  0  0  0  0  0  0  0  0  0  0
   -6.4950   -0.7500    0.0000 C   0  0  0  0  0  0  0  0  0  0  0  0
   -5.1960    0.0000    0.0000 C   0  0  0  0  0  0  0  0  0  0  0  0
   -3.8970   -0.7500    0.0000 C   0  0  2  0  0  0  0  0  0  0  0  0
   -3.8970    0.7500    0.0000 C   0  0  0  0  0  0  0  0  0  0  0  0
    0.1570    2.9920    0.0000 C   0  0  0  0  0  0  0  0  0  0  0  0
  1  2  1  0  0  0  0
  2  3  2  0  0  0  0
  2  4  1  0  0  0  0
  4  5  1  0  0  0  0
  4  8  1  0  0  0  0
  5  6  1  0  0  0  0
  6  7  1  0  0  0  0
  7  8  1  0  0  0  0
  7 12  1  0  0  0  0
  8  9  1  0  0  0  0
  8 23  1  1  0  0  0
  9 10  1  0  0  0  0
 10 11  1  0  0  0  0
 11 12  1  0  0  0  0
 11 21  1  0  0  0  0
 12 13  1  0  0  0  0
 13 14  1  0  0  0  0
 14 15  1  0  0  0  0
 15 16  2  0  0  0  0
 15 21  1  0  0  0  0
 16 17  1  0  0  0  0
 17 18  2  0  0  0  0
 17 19  1  0  0  0  0
 19 20  1  0  0  0  0
 20 21  1  0  0  0  0
 21 22  1  1  0  0  0
M  END
>  <n>
512

>  <SMILES>
O=C1CC[C@@]2([C@@H]3[C@H]([C@@H]4CC[C@H](C(=O)C)[C@]4(CC3)C)CCC2=C1)C

>  <IC50>
<10

>  <Class>
1

>  <NAME>
PROGESTERONE

>  <INCHI_KEY>
RJKFOVLPORLFTN-LEKSSAKUSA-N

>  <Reference>
Mitigating the inhibition of human Bile Salt Export Pump by drugs_ opportunities provided by physicochemical property modulation,  in-silico modeling and structural modification_SI

$$$$
PROPAFENONE
  MOE2013           2D

 25 26  0  0  1  0  0  0  0  0999 V2000
   -5.1960  -12.0000    0.0000 C   0  0  0  0  0  0  0  0  0  0  0  0
   -3.8970  -11.2500    0.0000 C   0  0  0  0  0  0  0  0  0  0  0  0
   -3.8970   -9.7500    0.0000 C   0  0  0  0  0  0  0  0  0  0  0  0
   -2.5980   -9.0000    0.0000 N   0  0  0  0  0  0  0  0  0  0  0  0
   -2.5980   -7.5000    0.0000 C   0  0  0  0  0  0  0  0  0  0  0  0
   -1.2990   -6.7500    0.0000 C   0  0  3  0  0  0  0  0  0  0  0  0
   -1.2990   -5.2500    0.0000 C   0  0  0  0  0  0  0  0  0  0  0  0
    0.0000   -4.5000    0.0000 O   0  0  0  0  0  0  0  0  0  0  0  0
    1.2990   -5.2500    0.0000 C   0  0  0  0  0  0  0  0  0  0  0  0
    1.2990   -6.7500    0.0000 C   0  0  0  0  0  0  0  0  0  0  0  0
    2.5980   -7.5000    0.0000 C   0  0  0  0  0  0  0  0  0  0  0  0
    3.8970   -6.7500    0.0000 C   0  0  0  0  0  0  0  0  0  0  0  0
    3.8970   -5.2500    0.0000 C   0  0  0  0  0  0  0  0  0  0  0  0
    2.5980   -4.5000    0.0000 C   0  0  0  0  0  0  0  0  0  0  0  0
    2.5980   -3.0000    0.0000 C   0  0  0  0  0  0  0  0  0  0  0  0
    3.8970   -2.2500    0.0000 O   0  0  0  0  0  0  0  0  0  0  0  0
    1.2990   -2.2500    0.0000 C   0  0  0  0  0  0  0  0  0  0  0  0
    1.2990   -0.7500    0.0000 C   0  0  0  0  0  0  0  0  0  0  0  0
    0.0000    0.0000    0.0000 C   0  0  0  0  0  0  0  0  0  0  0  0
    0.0000    1.5000    0.0000 C   0  0  0  0  0  0  0  0  0  0  0  0
   -1.2990    2.2500    0.0000 C   0  0  0  0  0  0  0  0  0  0  0  0
   -2.5980    1.5000    0.0000 C   0  0  0  0  0  0  0  0  0  0  0  0
   -2.5980    0.0000    0.0000 C   0  0  0  0  0  0  0  0  0  0  0  0
   -1.2990   -0.7500    0.0000 C   0  0  0  0  0  0  0  0  0  0  0  0
    0.0000   -7.5000    0.0000 O   0  0  0  0  0  0  0  0  0  0  0  0
  1  2  1  0  0  0  0
  2  3  1  0  0  0  0
  3  4  1  0  0  0  0
  4  5  1  0  0  0  0
  5  6  1  0  0  0  0
  6  7  1  0  0  0  0
  6 25  1  0  0  0  0
  7  8  1  0  0  0  0
  8  9  1  0  0  0  0
  9 10  1  0  0  0  0
  9 14  2  0  0  0  0
 10 11  2  0  0  0  0
 11 12  1  0  0  0  0
 12 13  2  0  0  0  0
 13 14  1  0  0  0  0
 14 15  1  0  0  0  0
 15 16  2  0  0  0  0
 15 17  1  0  0  0  0
 17 18  1  0  0  0  0
 18 19  1  0  0  0  0
 19 20  1  0  0  0  0
 19 24  2  0  0  0  0
 20 21  2  0  0  0  0
 21 22  1  0  0  0  0
 22 23  2  0  0  0  0
 23 24  1  0  0  0  0
M  END
>  <n>
513

>  <SMILES>
O(CC(O)CNCCC)c1ccccc1C(=O)CCc1ccccc1

>  <IC50>
53.7

>  <Class>
0

>  <NAME>
PROPAFENONE

>  <INCHI_KEY>
JWHAUXFOSRPERK-UHFFFAOYSA-N

>  <Reference>
Mitigating the inhibition of human Bile Salt Export Pump by drugs_ opportunities provided by physicochemical property modulation,  in-silico modeling and structural modification_SI

$$$$
PROPANTHELINE_BROMIDE
  MOE2013           2D

 27 29  0  0  0  0  0  0  0  0999 V2000
    5.1960   -7.5000    0.0000 C   0  0  0  0  0  0  0  0  0  0  0  0
    3.8970   -6.7500    0.0000 C   0  0  0  0  0  0  0  0  0  0  0  0
    2.5980   -7.5000    0.0000 C   0  0  0  0  0  0  0  0  0  0  0  0
    3.8970   -5.2500    0.0000 N   0  3  0  0  0  0  0  0  0  0  0  0
    5.3740   -5.5100    0.0000 C   0  0  0  0  0  0  0  0  0  0  0  0
    2.5980   -4.5000    0.0000 C   0  0  0  0  0  0  0  0  0  0  0  0
    2.5980   -3.0000    0.0000 C   0  0  0  0  0  0  0  0  0  0  0  0
    1.2990   -2.2500    0.0000 O   0  0  0  0  0  0  0  0  0  0  0  0
    1.2990   -0.7500    0.0000 C   0  0  0  0  0  0  0  0  0  0  0  0
    2.5980    0.0000    0.0000 O   0  0  0  0  0  0  0  0  0  0  0  0
    0.0000    0.0000    0.0000 C   0  0  0  0  0  0  0  0  0  0  0  0
    0.0000    1.5000    0.0000 C   0  0  0  0  0  0  0  0  0  0  0  0
    1.2990    2.2500    0.0000 C   0  0  0  0  0  0  0  0  0  0  0  0
    1.2990    3.7500    0.0000 C   0  0  0  0  0  0  0  0  0  0  0  0
    0.0000    4.5000    0.0000 C   0  0  0  0  0  0  0  0  0  0  0  0
   -1.2990    3.7500    0.0000 C   0  0  0  0  0  0  0  0  0  0  0  0
   -1.2990    2.2500    0.0000 C   0  0  0  0  0  0  0  0  0  0  0  0
   -2.5980    1.5000    0.0000 O   0  0  0  0  0  0  0  0  0  0  0  0
   -2.5980    0.0000    0.0000 C   0  0  0  0  0  0  0  0  0  0  0  0
   -1.2990   -0.7500    0.0000 C   0  0  0  0  0  0  0  0  0  0  0  0
   -1.2990   -2.2500    0.0000 C   0  0  0  0  0  0  0  0  0  0  0  0
   -2.5980   -3.0000    0.0000 C   0  0  0  0  0  0  0  0  0  0  0  0
   -3.8970   -2.2500    0.0000 C   0  0  0  0  0  0  0  0  0  0  0  0
   -3.8970   -0.7500    0.0000 C   0  0  0  0  0  0  0  0  0  0  0  0
    4.4100   -3.8400    0.0000 C   0  0  0  0  0  0  0  0  0  0  0  0
    5.8870   -3.5800    0.0000 C   0  0  0  0  0  0  0  0  0  0  0  0
    3.4460   -2.6910    0.0000 C   0  0  0  0  0  0  0  0  0  0  0  0
  1  2  1  0  0  0  0
  2  3  1  0  0  0  0
  2  4  1  0  0  0  0
  4  5  1  0  0  0  0
  4  6  1  0  0  0  0
  4 25  1  0  0  0  0
  6  7  1  0  0  0  0
  7  8  1  0  0  0  0
  8  9  1  0  0  0  0
  9 10  2  0  0  0  0
  9 11  1  0  0  0  0
 11 12  1  0  0  0  0
 11 20  1  0  0  0  0
 12 13  1  0  0  0  0
 12 17  2  0  0  0  0
 13 14  2  0  0  0  0
 14 15  1  0  0  0  0
 15 16  2  0  0  0  0
 16 17  1  0  0  0  0
 17 18  1  0  0  0  0
 18 19  1  0  0  0  0
 19 20  1  0  0  0  0
 19 24  2  0  0  0  0
 20 21  2  0  0  0  0
 21 22  1  0  0  0  0
 22 23  2  0  0  0  0
 23 24  1  0  0  0  0
 25 26  1  0  0  0  0
 25 27  1  0  0  0  0
M  CHG  1   4   1
M  END
>  <n>
514

>  <SMILES>
O1c2c(cccc2)C(c2c1cccc2)C(OCC[N+](C(C)C)(C(C)C)C)=O

>  <IC50>
291.3

>  <Class>
0

>  <NAME>
PROPANTHELINE BROMIDE

>  <INCHI_KEY>
VVWYOYDLCMFIEM-UHFFFAOYSA-N

>  <Reference>
Mitigating the inhibition of human Bile Salt Export Pump by drugs_ opportunities provided by physicochemical property modulation,  in-silico modeling and structural modification_SI

$$$$
PROPRANOLOL
  MOE2013           2D

 19 20  0  0  1  0  0  0  0  0999 V2000
    5.1960   10.5000    0.0000 C   0  0  0  0  0  0  0  0  0  0  0  0
    5.1960    9.0000    0.0000 C   0  0  0  0  0  0  0  0  0  0  0  0
    6.4950    8.2500    0.0000 C   0  0  0  0  0  0  0  0  0  0  0  0
    3.8970    8.2500    0.0000 N   0  0  0  0  0  0  0  0  0  0  0  0
    3.8970    6.7500    0.0000 C   0  0  0  0  0  0  0  0  0  0  0  0
    2.5980    6.0000    0.0000 C   0  0  3  0  0  0  0  0  0  0  0  0
    2.5980    4.5000    0.0000 C   0  0  0  0  0  0  0  0  0  0  0  0
    1.2990    3.7500    0.0000 O   0  0  0  0  0  0  0  0  0  0  0  0
    1.2990    2.2500    0.0000 C   0  0  0  0  0  0  0  0  0  0  0  0
    2.5980    1.5000    0.0000 C   0  0  0  0  0  0  0  0  0  0  0  0
    2.5980    0.0000    0.0000 C   0  0  0  0  0  0  0  0  0  0  0  0
    1.2990   -0.7500    0.0000 C   0  0  0  0  0  0  0  0  0  0  0  0
    0.0000    0.0000    0.0000 C   0  0  0  0  0  0  0  0  0  0  0  0
    0.0000    1.5000    0.0000 C   0  0  0  0  0  0  0  0  0  0  0  0
   -1.2990    2.2500    0.0000 C   0  0  0  0  0  0  0  0  0  0  0  0
   -2.5980    1.5000    0.0000 C   0  0  0  0  0  0  0  0  0  0  0  0
   -2.5980    0.0000    0.0000 C   0  0  0  0  0  0  0  0  0  0  0  0
   -1.2990   -0.7500    0.0000 C   0  0  0  0  0  0  0  0  0  0  0  0
    1.2990    6.7500    0.0000 O   0  0  0  0  0  0  0  0  0  0  0  0
  1  2  1  0  0  0  0
  2  3  1  0  0  0  0
  2  4  1  0  0  0  0
  4  5  1  0  0  0  0
  5  6  1  0  0  0  0
  6  7  1  0  0  0  0
  6 19  1  0  0  0  0
  7  8  1  0  0  0  0
  8  9  1  0  0  0  0
  9 10  2  0  0  0  0
  9 14  1  0  0  0  0
 10 11  1  0  0  0  0
 11 12  2  0  0  0  0
 12 13  1  0  0  0  0
 13 14  1  0  0  0  0
 13 18  2  0  0  0  0
 14 15  2  0  0  0  0
 15 16  1  0  0  0  0
 16 17  2  0  0  0  0
 17 18  1  0  0  0  0
M  END
>  <n>
515

>  <SMILES>
O(CC(O)CNC(C)C)c1c2c(ccc1)cccc2

>  <IC50>
>1000

>  <Class>
0

>  <NAME>
PROPRANOLOL

>  <INCHI_KEY>
AQHHHDLHHXJYJD-UHFFFAOYSA-N

>  <Reference>
Mitigating, Dawson

$$$$
PROTOKYLOL_HYDROCHLORIDE
  MOE2013           2D

 24 26  0  0  1  0  0  0  0  0999 V2000
    5.1960    0.0000    0.0000 C   0  0  0  0  0  0  0  0  0  0  0  0
    5.1960    1.5000    0.0000 C   0  0  3  0  0  0  0  0  0  0  0  0
    3.8970    2.2500    0.0000 C   0  0  0  0  0  0  0  0  0  0  0  0
    2.5980    1.5000    0.0000 C   0  0  0  0  0  0  0  0  0  0  0  0
    2.5980    0.0000    0.0000 C   0  0  0  0  0  0  0  0  0  0  0  0
    1.2990   -0.7500    0.0000 C   0  0  0  0  0  0  0  0  0  0  0  0
    0.0000    0.0000    0.0000 C   0  0  0  0  0  0  0  0  0  0  0  0
    0.0000    1.5000    0.0000 C   0  0  0  0  0  0  0  0  0  0  0  0
    1.2990    2.2500    0.0000 C   0  0  0  0  0  0  0  0  0  0  0  0
   -1.4270    1.9640    0.0000 O   0  0  0  0  0  0  0  0  0  0  0  0
   -2.3080    0.7500    0.0000 C   0  0  0  0  0  0  0  0  0  0  0  0
   -1.4270   -0.4640    0.0000 O   0  0  0  0  0  0  0  0  0  0  0  0
    6.4950    2.2500    0.0000 N   0  0  0  0  0  0  0  0  0  0  0  0
    7.7940    1.5000    0.0000 C   0  0  0  0  0  0  0  0  0  0  0  0
    9.0930    2.2500    0.0000 C   0  0  3  0  0  0  0  0  0  0  0  0
   10.3920    1.5000    0.0000 C   0  0  0  0  0  0  0  0  0  0  0  0
   10.3920    0.0000    0.0000 C   0  0  0  0  0  0  0  0  0  0  0  0
   11.6910   -0.7500    0.0000 C   0  0  0  0  0  0  0  0  0  0  0  0
   12.9900    0.0000    0.0000 C   0  0  0  0  0  0  0  0  0  0  0  0
   12.9900    1.5000    0.0000 C   0  0  0  0  0  0  0  0  0  0  0  0
   11.6910    2.2500    0.0000 C   0  0  0  0  0  0  0  0  0  0  0  0
   14.2890    2.2500    0.0000 O   0  0  0  0  0  0  0  0  0  0  0  0
   14.2890   -0.7500    0.0000 O   0  0  0  0  0  0  0  0  0  0  0  0
    9.0930    3.7500    0.0000 O   0  0  0  0  0  0  0  0  0  0  0  0
  1  2  1  0  0  0  0
  2  3  1  0  0  0  0
  2 13  1  0  0  0  0
  3  4  1  0  0  0  0
  4  5  1  0  0  0  0
  4  9  2  0  0  0  0
  5  6  2  0  0  0  0
  6  7  1  0  0  0  0
  7  8  2  0  0  0  0
  7 12  1  0  0  0  0
  8  9  1  0  0  0  0
  8 10  1  0  0  0  0
 10 11  1  0  0  0  0
 11 12  1  0  0  0  0
 13 14  1  0  0  0  0
 14 15  1  0  0  0  0
 15 16  1  0  0  0  0
 15 24  1  0  0  0  0
 16 17  1  0  0  0  0
 16 21  2  0  0  0  0
 17 18  2  0  0  0  0
 18 19  1  0  0  0  0
 19 20  2  0  0  0  0
 19 23  1  0  0  0  0
 20 21  1  0  0  0  0
 20 22  1  0  0  0  0
M  END
>  <n>
516

>  <SMILES>
O1c2cc(ccc2OC1)CC(NCC(O)c1cc(O)c(O)cc1)C

>  <IC50>
>982.3

>  <Class>
0

>  <NAME>
PROTOKYLOL HYDROCHLORIDE

>  <INCHI_KEY>
LUMAEVHDZXIGEP-UHFFFAOYSA-N

>  <Reference>
Mitigating the inhibition of human Bile Salt Export Pump by drugs_ opportunities provided by physicochemical property modulation,  in-silico modeling and structural modification_SI

$$$$
PROTRIPTYLINE
  MOE2013           2D

 20 22  0  0  0  0  0  0  0  0999 V2000
    6.5330   -0.2620    0.0000 C   0  0  0  0  0  0  0  0  0  0  0  0
    5.1820    0.3880    0.0000 N   0  0  0  0  0  0  0  0  0  0  0  0
    3.9420   -0.4570    0.0000 C   0  0  0  0  0  0  0  0  0  0  0  0
    2.5910    0.1940    0.0000 C   0  0  0  0  0  0  0  0  0  0  0  0
    1.3520   -0.6510    0.0000 C   0  0  0  0  0  0  0  0  0  0  0  0
    0.0000    0.0000    0.0000 C   0  0  0  0  0  0  0  0  0  0  0  0
    0.0000    1.5000    0.0000 C   0  0  0  0  0  0  0  0  0  0  0  0
    1.3960    2.0480    0.0000 C   0  0  0  0  0  0  0  0  0  0  0  0
    1.6200    3.5310    0.0000 C   0  0  0  0  0  0  0  0  0  0  0  0
    0.4470    4.4660    0.0000 C   0  0  0  0  0  0  0  0  0  0  0  0
   -0.9490    3.9180    0.0000 C   0  0  0  0  0  0  0  0  0  0  0  0
   -1.1730    2.4350    0.0000 C   0  0  0  0  0  0  0  0  0  0  0  0
   -2.6350    2.1020    0.0000 C   0  0  0  0  0  0  0  0  0  0  0  0
   -3.2860    0.7500    0.0000 C   0  0  0  0  0  0  0  0  0  0  0  0
   -2.6350   -0.6020    0.0000 C   0  0  0  0  0  0  0  0  0  0  0  0
   -1.1730   -0.9350    0.0000 C   0  0  0  0  0  0  0  0  0  0  0  0
   -0.7310   -2.3690    0.0000 C   0  0  0  0  0  0  0  0  0  0  0  0
   -1.7510   -3.4680    0.0000 C   0  0  0  0  0  0  0  0  0  0  0  0
   -3.2130   -3.1340    0.0000 C   0  0  0  0  0  0  0  0  0  0  0  0
   -3.6550   -1.7010    0.0000 C   0  0  0  0  0  0  0  0  0  0  0  0
  1  2  1  0  0  0  0
  2  3  1  0  0  0  0
  3  4  1  0  0  0  0
  4  5  1  0  0  0  0
  5  6  1  0  0  0  0
  6  7  1  0  0  0  0
  6 16  1  0  0  0  0
  7  8  1  0  0  0  0
  7 12  2  0  0  0  0
  8  9  2  0  0  0  0
  9 10  1  0  0  0  0
 10 11  2  0  0  0  0
 11 12  1  0  0  0  0
 12 13  1  0  0  0  0
 13 14  2  0  0  0  0
 14 15  1  0  0  0  0
 15 16  1  0  0  0  0
 15 20  2  0  0  0  0
 16 17  2  0  0  0  0
 17 18  1  0  0  0  0
 18 19  2  0  0  0  0
 19 20  1  0  0  0  0
M  END
>  <n>
517

>  <SMILES>
N(CCCC1c2c(C=Cc3c1cccc3)cccc2)C

>  <IC50>
128.6

>  <Class>
0

>  <NAME>
PROTRIPTYLINE

>  <INCHI_KEY>
BWPIARFWQZKAIA-UHFFFAOYSA-N

>  <Reference>
Mitigating the inhibition of human Bile Salt Export Pump by drugs_ opportunities provided by physicochemical property modulation,  in-silico modeling and structural modification_SI

$$$$
mol519
  MOE2013           2D

 29 31  0  0  1  0  0  0  0  0999 V2000
    5.0190   -1.3450    0.0000 C   0  0  0  0  0  0  0  0  0  0  0  0
    3.5700   -1.7330    0.0000 C   0  0  0  0  0  0  0  0  0  0  0  0
    2.5100   -0.6720    0.0000 C   0  0  3  0  0  0  0  0  0  0  0  0
    2.8980    0.7760    0.0000 C   0  0  0  0  0  0  0  0  0  0  0  0
    4.2980    1.3140    0.0000 C   0  0  0  0  0  0  0  0  0  0  0  0
    4.2200    2.8120    0.0000 C   0  0  0  0  0  0  0  0  0  0  0  0
    2.7710    3.2000    0.0000 C   0  0  0  0  0  0  0  0  0  0  0  0
    1.9540    1.9420    0.0000 O   0  0  0  0  0  0  0  0  0  0  0  0
    2.2330    4.6010    0.0000 C   0  0  0  0  0  0  0  0  0  0  0  0
    1.0610   -1.0610    0.0000 N   0  0  0  0  0  0  0  0  0  0  0  0
    0.0000    0.0000    0.0000 C   0  0  0  0  0  0  0  0  0  0  0  0
    0.0000    1.5000    0.0000 C   0  0  0  0  0  0  0  0  0  0  0  0
   -1.5000    1.5000    0.0000 C   0  0  0  0  0  0  0  0  0  0  0  0
   -2.5610    2.5610    0.0000 O   0  0  0  0  0  0  0  0  0  0  0  0
   -1.5000    0.0000    0.0000 C   0  0  0  0  0  0  0  0  0  0  0  0
   -2.5610   -1.0610    0.0000 O   0  0  0  0  0  0  0  0  0  0  0  0
    1.0610    2.5610    0.0000 N   0  0  0  0  0  0  0  0  0  0  0  0
    0.6720    4.0100    0.0000 C   0  0  0  0  0  0  0  0  0  0  0  0
    1.7330    5.0700    0.0000 C   0  0  0  0  0  0  0  0  0  0  0  0
    1.3450    6.5190    0.0000 C   0  0  0  0  0  0  0  0  0  0  0  0
   -0.1040    6.9070    0.0000 C   0  0  0  0  0  0  0  0  0  0  0  0
   -1.1650    5.8470    0.0000 C   0  0  0  0  0  0  0  0  0  0  0  0
   -0.7760    4.3980    0.0000 C   0  0  0  0  0  0  0  0  0  0  0  0
   -1.8370    3.3370    0.0000 O   0  0  0  0  0  0  0  0  0  0  0  0
   -2.6140    6.2350    0.0000 C   0  0  0  0  0  0  0  0  0  0  0  0
   -3.6740    5.1740    0.0000 O   0  0  0  0  0  0  0  0  0  0  0  0
   -3.0020    7.6840    0.0000 N   0  0  0  0  0  0  0  0  0  0  0  0
   -4.4510    8.0720    0.0000 C   0  0  0  0  0  0  0  0  0  0  0  0
   -1.9410    8.7440    0.0000 C   0  0  0  0  0  0  0  0  0  0  0  0
  1  2  1  0  0  0  0
  2  3  1  0  0  0  0
  3  4  1  0  0  0  0
  3 10  1  0  0  0  0
  4  5  2  0  0  0  0
  4  8  1  0  0  0  0
  5  6  1  0  0  0  0
  6  7  2  0  0  0  0
  7  8  1  0  0  0  0
  7  9  1  0  0  0  0
 10 11  1  0  0  0  0
 11 12  2  0  0  0  0
 11 15  1  0  0  0  0
 12 13  1  0  0  0  0
 12 17  1  0  0  0  0
 13 14  2  0  0  0  0
 13 15  1  0  0  0  0
 15 16  2  0  0  0  0
 17 18  1  0  0  0  0
 18 19  1  0  0  0  0
 18 23  2  0  0  0  0
 19 20  2  0  0  0  0
 20 21  1  0  0  0  0
 21 22  2  0  0  0  0
 22 23  1  0  0  0  0
 22 25  1  0  0  0  0
 23 24  1  0  0  0  0
 25 26  2  0  0  0  0
 25 27  1  0  0  0  0
 27 28  1  0  0  0  0
 27 29  1  0  0  0  0
M  END
>  <n>
519

>  <SMILES>
o1c(ccc1[C@H](NC=1C(=O)C(=O)C=1Nc1cccc(C(=O)N(C)C)c1O)CC)C

>  <IC50>
<10

>  <Class>
1

>  <NAME>
PS-291822

>  <INCHI_KEY>
RXIUEIPPLAFSDF-CYBMUJFWSA-N

>  <Reference>
Mitigating the inhibition of human Bile Salt Export Pump by drugs_ opportunities provided by physicochemical property modulation,  in-silico modeling and structural modification_SI

$$$$
mol520
  MOE2013           2D

 25 28  0  0  0  0  0  0  0  0999 V2000
    0.0000    0.0000    0.0000 C   0  0  0  0  0  0  0  0  0  0  0  0
    0.0000    1.5000    0.0000 C   0  0  0  0  0  0  0  0  0  0  0  0
   -1.2990    2.2500    0.0000 C   0  0  0  0  0  0  0  0  0  0  0  0
   -2.5980    1.5000    0.0000 C   0  0  0  0  0  0  0  0  0  0  0  0
   -2.5980    0.0000    0.0000 C   0  0  0  0  0  0  0  0  0  0  0  0
   -1.2990   -0.7500    0.0000 C   0  0  0  0  0  0  0  0  0  0  0  0
   -3.8970   -0.7500    0.0000 C   0  0  0  0  0  0  0  0  0  0  0  0
   -5.1960    0.0000    0.0000 N   0  0  0  0  0  0  0  0  0  0  0  0
   -5.1960    1.5000    0.0000 N   0  0  0  0  0  0  0  0  0  0  0  0
   -3.8970    2.2500    0.0000 C   0  0  0  0  0  0  0  0  0  0  0  0
   -3.8970    3.7500    0.0000 N   0  0  0  0  0  0  0  0  0  0  0  0
   -5.1960    4.5000    0.0000 C   0  0  0  0  0  0  0  0  0  0  0  0
   -5.1960    6.0000    0.0000 C   0  0  0  0  0  0  0  0  0  0  0  0
   -6.4950    6.7500    0.0000 C   0  0  0  0  0  0  0  0  0  0  0  0
   -7.7940    6.0000    0.0000 C   0  0  0  0  0  0  0  0  0  0  0  0
   -7.7940    4.5000    0.0000 C   0  0  0  0  0  0  0  0  0  0  0  0
   -6.4950    3.7500    0.0000 C   0  0  0  0  0  0  0  0  0  0  0  0
   -9.0930    6.7500    0.0000 Cl  0  0  0  0  0  0  0  0  0  0  0  0
   -3.8970   -2.2500    0.0000 C   0  0  0  0  0  0  0  0  0  0  0  0
   -2.5980   -3.0000    0.0000 C   0  0  0  0  0  0  0  0  0  0  0  0
   -2.5980   -4.5000    0.0000 C   0  0  0  0  0  0  0  0  0  0  0  0
   -1.2990   -5.2500    0.0000 C   0  0  0  0  0  0  0  0  0  0  0  0
    0.0000   -4.5000    0.0000 N   0  0  0  0  0  0  0  0  0  0  0  0
    0.0000   -3.0000    0.0000 C   0  0  0  0  0  0  0  0  0  0  0  0
   -1.2990   -2.2500    0.0000 C   0  0  0  0  0  0  0  0  0  0  0  0
  1  2  1  0  0  0  0
  1  6  2  0  0  0  0
  2  3  2  0  0  0  0
  3  4  1  0  0  0  0
  4  5  1  0  0  0  0
  4 10  2  0  0  0  0
  5  6  1  0  0  0  0
  5  7  2  0  0  0  0
  7  8  1  0  0  0  0
  7 19  1  0  0  0  0
  8  9  2  0  0  0  0
  9 10  1  0  0  0  0
 10 11  1  0  0  0  0
 11 12  1  0  0  0  0
 12 13  1  0  0  0  0
 12 17  2  0  0  0  0
 13 14  2  0  0  0  0
 14 15  1  0  0  0  0
 15 16  2  0  0  0  0
 15 18  1  0  0  0  0
 16 17  1  0  0  0  0
 19 20  1  0  0  0  0
 20 21  1  0  0  0  0
 20 25  2  0  0  0  0
 21 22  2  0  0  0  0
 22 23  1  0  0  0  0
 23 24  2  0  0  0  0
 24 25  1  0  0  0  0
M  END
>  <n>
520

>  <SMILES>
Clc1ccc(Nc2nnc(c3c2cccc3)Cc2ccncc2)cc1

>  <IC50>
<10

>  <Class>
1

>  <NAME>
PTK-787

>  <INCHI_KEY>
YCOYDOIWSSHVCK-UHFFFAOYSA-N

>  <Reference>
Mitigating the inhibition of human Bile Salt Export Pump by drugs_ opportunities provided by physicochemical property modulation,  in-silico modeling and structural modification_SI

$$$$
PYRIDOSTIGMINE_BROMIDE
  MOE2013           2D

 13 13  0  0  0  0  0  0  0  0999 V2000
    1.2990   -0.7500    0.0000 C   0  0  0  0  0  0  0  0  0  0  0  0
    0.0000    0.0000    0.0000 N   0  3  0  0  0  0  0  0  0  0  0  0
    0.0000    1.5000    0.0000 C   0  0  0  0  0  0  0  0  0  0  0  0
   -1.2990    2.2500    0.0000 C   0  0  0  0  0  0  0  0  0  0  0  0
   -2.5980    1.5000    0.0000 C   0  0  0  0  0  0  0  0  0  0  0  0
   -2.5980    0.0000    0.0000 C   0  0  0  0  0  0  0  0  0  0  0  0
   -1.2990   -0.7500    0.0000 C   0  0  0  0  0  0  0  0  0  0  0  0
   -3.8970   -0.7500    0.0000 O   0  0  0  0  0  0  0  0  0  0  0  0
   -5.1960    0.0000    0.0000 C   0  0  0  0  0  0  0  0  0  0  0  0
   -5.1960    1.5000    0.0000 O   0  0  0  0  0  0  0  0  0  0  0  0
   -6.4950   -0.7500    0.0000 N   0  0  0  0  0  0  0  0  0  0  0  0
   -7.7940    0.0000    0.0000 C   0  0  0  0  0  0  0  0  0  0  0  0
   -6.4950   -2.2500    0.0000 C   0  0  0  0  0  0  0  0  0  0  0  0
  1  2  1  0  0  0  0
  2  3  1  0  0  0  0
  2  7  2  0  0  0  0
  3  4  2  0  0  0  0
  4  5  1  0  0  0  0
  5  6  2  0  0  0  0
  6  7  1  0  0  0  0
  6  8  1  0  0  0  0
  8  9  1  0  0  0  0
  9 10  2  0  0  0  0
  9 11  1  0  0  0  0
 11 12  1  0  0  0  0
 11 13  1  0  0  0  0
M  CHG  1   2   1
M  END
>  <n>
521

>  <SMILES>
O(C(=O)N(C)C)c1ccc[n+](c1)C

>  <IC50>
>1000

>  <Class>
0

>  <NAME>
PYRIDOSTIGMINE BROMIDE

>  <INCHI_KEY>
RVOLLAQWKVFTGE-UHFFFAOYSA-N

>  <Reference>
Mitigating the inhibition of human Bile Salt Export Pump by drugs_ opportunities provided by physicochemical property modulation,  in-silico modeling and structural modification_SI

$$$$
PYRIMETHAMINE
  MOE2013           2D

 17 18  0  0  0  0  0  0  0  0999 V2000
    3.8970    2.2500    0.0000 C   0  0  0  0  0  0  0  0  0  0  0  0
    2.5980    1.5000    0.0000 C   0  0  0  0  0  0  0  0  0  0  0  0
    2.5980    0.0000    0.0000 C   0  0  0  0  0  0  0  0  0  0  0  0
    1.2990   -0.7500    0.0000 C   0  0  0  0  0  0  0  0  0  0  0  0
    1.2990   -2.2500    0.0000 C   0  0  0  0  0  0  0  0  0  0  0  0
    2.5980   -3.0000    0.0000 N   0  0  0  0  0  0  0  0  0  0  0  0
    3.8970   -2.2500    0.0000 C   0  0  0  0  0  0  0  0  0  0  0  0
    3.8970   -0.7500    0.0000 N   0  0  0  0  0  0  0  0  0  0  0  0
    5.1960   -3.0000    0.0000 N   0  0  0  0  0  0  0  0  0  0  0  0
    0.0000   -3.0000    0.0000 N   0  0  0  0  0  0  0  0  0  0  0  0
    0.0000    0.0000    0.0000 C   0  0  0  0  0  0  0  0  0  0  0  0
    0.0000    1.5000    0.0000 C   0  0  0  0  0  0  0  0  0  0  0  0
   -1.2990    2.2500    0.0000 C   0  0  0  0  0  0  0  0  0  0  0  0
   -2.5980    1.5000    0.0000 C   0  0  0  0  0  0  0  0  0  0  0  0
   -2.5980    0.0000    0.0000 C   0  0  0  0  0  0  0  0  0  0  0  0
   -1.2990   -0.7500    0.0000 C   0  0  0  0  0  0  0  0  0  0  0  0
   -3.8970    2.2500    0.0000 Cl  0  0  0  0  0  0  0  0  0  0  0  0
  1  2  1  0  0  0  0
  2  3  1  0  0  0  0
  3  4  1  0  0  0  0
  3  8  2  0  0  0  0
  4  5  2  0  0  0  0
  4 11  1  0  0  0  0
  5  6  1  0  0  0  0
  5 10  1  0  0  0  0
  6  7  2  0  0  0  0
  7  8  1  0  0  0  0
  7  9  1  0  0  0  0
 11 12  1  0  0  0  0
 11 16  2  0  0  0  0
 12 13  2  0  0  0  0
 13 14  1  0  0  0  0
 14 15  2  0  0  0  0
 14 17  1  0  0  0  0
 15 16  1  0  0  0  0
M  END
>  <n>
522

>  <SMILES>
Clc1ccc(cc1)-c1c(nc(nc1N)N)CC

>  <IC50>
200.1

>  <Class>
0

>  <NAME>
PYRIMETHAMINE

>  <INCHI_KEY>
WKSAUQYGYAYLPV-UHFFFAOYSA-N

>  <Reference>
Mitigating the inhibition of human Bile Salt Export Pump by drugs_ opportunities provided by physicochemical property modulation,  in-silico modeling and structural modification_SI

$$$$
QUILOSTIGMINE
  MOE2013           2D

 28 32  0  0  1  0  0  0  0  0999 V2000
    0.0000   -1.5000    0.0000 C   0  0  0  0  0  0  0  0  0  0  0  0
    0.0000    0.0000    0.0000 C   0  0  1  0  0  0  0  0  0  0  0  0
    1.4270   -0.4640    0.0000 C   0  0  0  0  0  0  0  0  0  0  0  0
    2.3080    0.7500    0.0000 C   0  0  0  0  0  0  0  0  0  0  0  0
    1.4270    1.9640    0.0000 N   0  0  3  0  0  0  0  0  0  0  0  0
    0.0000    1.5000    0.0000 C   0  0  3  0  0  0  0  0  0  0  0  0
   -1.4270    1.9640    0.0000 N   0  0  3  0  0  0  0  0  0  0  0  0
   -2.3080    0.7500    0.0000 C   0  0  0  0  0  0  0  0  0  0  0  0
   -1.4270   -0.4640    0.0000 C   0  0  0  0  0  0  0  0  0  0  0  0
   -2.0370   -1.8340    0.0000 C   0  0  0  0  0  0  0  0  0  0  0  0
   -3.5280   -1.9910    0.0000 C   0  0  0  0  0  0  0  0  0  0  0  0
   -4.4100   -0.7770    0.0000 C   0  0  0  0  0  0  0  0  0  0  0  0
   -3.8000    0.5930    0.0000 C   0  0  0  0  0  0  0  0  0  0  0  0
   -4.1390   -3.3610    0.0000 O   0  0  0  0  0  0  0  0  0  0  0  0
   -5.6300   -3.5180    0.0000 C   0  0  0  0  0  0  0  0  0  0  0  0
   -6.5120   -2.3040    0.0000 O   0  0  0  0  0  0  0  0  0  0  0  0
   -6.2400   -4.8880    0.0000 N   0  0  0  0  0  0  0  0  0  0  0  0
   -7.7320   -5.0450    0.0000 C   0  0  0  0  0  0  0  0  0  0  0  0
   -8.3420   -6.4150    0.0000 C   0  0  0  0  0  0  0  0  0  0  0  0
   -7.4610   -7.6290    0.0000 C   0  0  0  0  0  0  0  0  0  0  0  0
   -8.0710   -8.9990    0.0000 C   0  0  0  0  0  0  0  0  0  0  0  0
   -7.1890  -10.2120    0.0000 C   0  0  0  0  0  0  0  0  0  0  0  0
   -5.6970  -10.0560    0.0000 C   0  0  0  0  0  0  0  0  0  0  0  0
   -5.0870   -8.6850    0.0000 C   0  0  0  0  0  0  0  0  0  0  0  0
   -5.9690   -7.4720    0.0000 C   0  0  0  0  0  0  0  0  0  0  0  0
   -5.3590   -6.1020    0.0000 C   0  0  0  0  0  0  0  0  0  0  0  0
   -1.8900    3.3900    0.0000 C   0  0  0  0  0  0  0  0  0  0  0  0
    1.8900    3.3900    0.0000 C   0  0  0  0  0  0  0  0  0  0  0  0
  2  1  1  6  0  0  0
  2  3  1  0  0  0  0
  2  6  1  0  0  0  0
  2  9  1  0  0  0  0
  3  4  1  0  0  0  0
  4  5  1  0  0  0  0
  5  6  1  0  0  0  0
  5 28  1  0  0  0  0
  6  7  1  0  0  0  0
  7  8  1  0  0  0  0
  7 27  1  0  0  0  0
  8  9  1  0  0  0  0
  8 13  2  0  0  0  0
  9 10  2  0  0  0  0
 10 11  1  0  0  0  0
 11 12  2  0  0  0  0
 11 14  1  0  0  0  0
 12 13  1  0  0  0  0
 14 15  1  0  0  0  0
 15 16  2  0  0  0  0
 15 17  1  0  0  0  0
 17 18  1  0  0  0  0
 17 26  1  0  0  0  0
 18 19  1  0  0  0  0
 19 20  1  0  0  0  0
 20 21  1  0  0  0  0
 20 25  2  0  0  0  0
 21 22  2  0  0  0  0
 22 23  1  0  0  0  0
 23 24  2  0  0  0  0
 24 25  1  0  0  0  0
 25 26  1  0  0  0  0
M  END
>  <n>
523

>  <SMILES>
O(C(=O)N1CCc2c(C1)cccc2)c1cc2c(N([C@H]3N(CC[C@@]23C)C)C)cc1

>  <IC50>
<10

>  <Class>
1

>  <NAME>
QUILOSTIGMINE

>  <INCHI_KEY>
IIFRKALDATVOJE-GGAORHGYSA-N

>  <Reference>
Mitigating the inhibition of human Bile Salt Export Pump by drugs_ opportunities provided by physicochemical property modulation,  in-silico modeling and structural modification_SI

$$$$
QUINACRINE
  MOE2013           2D

 28 30  0  0  1  0  0  0  0  0999 V2000
    5.1960   -9.0000    0.0000 C   0  0  0  0  0  0  0  0  0  0  0  0
    5.1960   -7.5000    0.0000 C   0  0  0  0  0  0  0  0  0  0  0  0
    3.8970   -6.7500    0.0000 N   0  0  0  0  0  0  0  0  0  0  0  0
    2.5980   -7.5000    0.0000 C   0  0  0  0  0  0  0  0  0  0  0  0
    2.5980   -9.0000    0.0000 C   0  0  0  0  0  0  0  0  0  0  0  0
    3.8970   -5.2500    0.0000 C   0  0  0  0  0  0  0  0  0  0  0  0
    2.5980   -4.5000    0.0000 C   0  0  0  0  0  0  0  0  0  0  0  0
    2.5980   -3.0000    0.0000 C   0  0  0  0  0  0  0  0  0  0  0  0
    1.2990   -2.2500    0.0000 C   0  0  3  0  0  0  0  0  0  0  0  0
    0.0000   -3.0000    0.0000 C   0  0  0  0  0  0  0  0  0  0  0  0
    1.2990   -0.7500    0.0000 N   0  0  0  0  0  0  0  0  0  0  0  0
    0.0000    0.0000    0.0000 C   0  0  0  0  0  0  0  0  0  0  0  0
    0.0000    1.5000    0.0000 C   0  0  0  0  0  0  0  0  0  0  0  0
    1.2990    2.2500    0.0000 C   0  0  0  0  0  0  0  0  0  0  0  0
    1.2990    3.7500    0.0000 C   0  0  0  0  0  0  0  0  0  0  0  0
    0.0000    4.5000    0.0000 C   0  0  0  0  0  0  0  0  0  0  0  0
   -1.2990    3.7500    0.0000 C   0  0  0  0  0  0  0  0  0  0  0  0
   -1.2990    2.2500    0.0000 C   0  0  0  0  0  0  0  0  0  0  0  0
   -2.5980    1.5000    0.0000 N   0  0  0  0  0  0  0  0  0  0  0  0
   -2.5980    0.0000    0.0000 C   0  0  0  0  0  0  0  0  0  0  0  0
   -1.2990   -0.7500    0.0000 C   0  0  0  0  0  0  0  0  0  0  0  0
   -1.2990   -2.2500    0.0000 C   0  0  0  0  0  0  0  0  0  0  0  0
   -2.5980   -3.0000    0.0000 C   0  0  0  0  0  0  0  0  0  0  0  0
   -3.8970   -2.2500    0.0000 C   0  0  0  0  0  0  0  0  0  0  0  0
   -3.8970   -0.7500    0.0000 C   0  0  0  0  0  0  0  0  0  0  0  0
   -2.5980   -4.5000    0.0000 O   0  0  0  0  0  0  0  0  0  0  0  0
   -3.8970   -5.2500    0.0000 C   0  0  0  0  0  0  0  0  0  0  0  0
    0.0000    6.0000    0.0000 Cl  0  0  0  0  0  0  0  0  0  0  0  0
  1  2  1  0  0  0  0
  2  3  1  0  0  0  0
  3  4  1  0  0  0  0
  3  6  1  0  0  0  0
  4  5  1  0  0  0  0
  6  7  1  0  0  0  0
  7  8  1  0  0  0  0
  8  9  1  0  0  0  0
  9 10  1  0  0  0  0
  9 11  1  0  0  0  0
 11 12  1  0  0  0  0
 12 13  2  0  0  0  0
 12 21  1  0  0  0  0
 13 14  1  0  0  0  0
 13 18  1  0  0  0  0
 14 15  2  0  0  0  0
 15 16  1  0  0  0  0
 16 17  2  0  0  0  0
 16 28  1  0  0  0  0
 17 18  1  0  0  0  0
 18 19  2  0  0  0  0
 19 20  1  0  0  0  0
 20 21  1  0  0  0  0
 20 25  2  0  0  0  0
 21 22  2  0  0  0  0
 22 23  1  0  0  0  0
 23 24  2  0  0  0  0
 23 26  1  0  0  0  0
 24 25  1  0  0  0  0
 26 27  1  0  0  0  0
M  END
>  <n>
524

>  <SMILES>
Clc1cc2nc3c(cc(OC)cc3)c(NC(CCCN(CC)CC)C)c2cc1

>  <IC50>
101.1

>  <Class>
0

>  <NAME>
QUINACRINE

>  <INCHI_KEY>
GPKJTRJOBQGKQK-UHFFFAOYSA-N

>  <Reference>
Mitigating the inhibition of human Bile Salt Export Pump by drugs_ opportunities provided by physicochemical property modulation,  in-silico modeling and structural modification_SI

$$$$
RALFINAMIDE
  MOE2013           2D

 22 23  0  0  1  0  0  0  0  0999 V2000
   10.3920   -4.5000    0.0000 C   0  0  0  0  0  0  0  0  0  0  0  0
   10.3920   -3.0000    0.0000 C   0  0  3  0  0  0  0  0  0  0  0  0
   11.6910   -2.2500    0.0000 C   0  0  0  0  0  0  0  0  0  0  0  0
   12.9900   -3.0000    0.0000 O   0  0  0  0  0  0  0  0  0  0  0  0
   11.6910   -0.7500    0.0000 N   0  0  0  0  0  0  0  0  0  0  0  0
    9.0930   -2.2500    0.0000 N   0  0  0  0  0  0  0  0  0  0  0  0
    7.7940   -3.0000    0.0000 C   0  0  0  0  0  0  0  0  0  0  0  0
    6.4950   -2.2500    0.0000 C   0  0  0  0  0  0  0  0  0  0  0  0
    6.4950   -0.7500    0.0000 C   0  0  0  0  0  0  0  0  0  0  0  0
    5.1960    0.0000    0.0000 C   0  0  0  0  0  0  0  0  0  0  0  0
    3.8970   -0.7500    0.0000 C   0  0  0  0  0  0  0  0  0  0  0  0
    3.8970   -2.2500    0.0000 C   0  0  0  0  0  0  0  0  0  0  0  0
    5.1960   -3.0000    0.0000 C   0  0  0  0  0  0  0  0  0  0  0  0
    2.5980    0.0000    0.0000 O   0  0  0  0  0  0  0  0  0  0  0  0
    1.2990   -0.7500    0.0000 C   0  0  0  0  0  0  0  0  0  0  0  0
    0.0000    0.0000    0.0000 C   0  0  0  0  0  0  0  0  0  0  0  0
    0.0000    1.5000    0.0000 C   0  0  0  0  0  0  0  0  0  0  0  0
   -1.2990    2.2500    0.0000 C   0  0  0  0  0  0  0  0  0  0  0  0
   -2.5980    1.5000    0.0000 C   0  0  0  0  0  0  0  0  0  0  0  0
   -2.5980    0.0000    0.0000 C   0  0  0  0  0  0  0  0  0  0  0  0
   -1.2990   -0.7500    0.0000 C   0  0  0  0  0  0  0  0  0  0  0  0
   -1.2990   -2.2500    0.0000 F   0  0  0  0  0  0  0  0  0  0  0  0
  1  2  1  0  0  0  0
  2  3  1  0  0  0  0
  2  6  1  0  0  0  0
  3  4  2  0  0  0  0
  3  5  1  0  0  0  0
  6  7  1  0  0  0  0
  7  8  1  0  0  0  0
  8  9  1  0  0  0  0
  8 13  2  0  0  0  0
  9 10  2  0  0  0  0
 10 11  1  0  0  0  0
 11 12  2  0  0  0  0
 11 14  1  0  0  0  0
 12 13  1  0  0  0  0
 14 15  1  0  0  0  0
 15 16  1  0  0  0  0
 16 17  1  0  0  0  0
 16 21  2  0  0  0  0
 17 18  2  0  0  0  0
 18 19  1  0  0  0  0
 19 20  2  0  0  0  0
 20 21  1  0  0  0  0
 21 22  1  0  0  0  0
M  END
>  <n>
525

>  <SMILES>
Fc1ccccc1COc1ccc(cc1)CN[C@H](C(=O)N)C

>  <IC50>
174.7

>  <Class>
0

>  <NAME>
RALFINAMIDE

>  <INCHI_KEY>
BHJIBOFHEFDSAU-LBPRGKRZSA-N

>  <Reference>
Mitigating the inhibition of human Bile Salt Export Pump by drugs_ opportunities provided by physicochemical property modulation,  in-silico modeling and structural modification_SI

$$$$
RAMATROBAN
  MOE2013           2D

 29 32  0  0  1  0  0  0  0  0999 V2000
    2.5980    1.5000    0.0000 C   0  0  0  0  0  0  0  0  0  0  0  0
    2.5980    0.0000    0.0000 C   0  0  0  0  0  0  0  0  0  0  0  0
    1.2990   -0.7500    0.0000 C   0  0  0  0  0  0  0  0  0  0  0  0
    0.0000    0.0000    0.0000 C   0  0  0  0  0  0  0  0  0  0  0  0
    0.0000    1.5000    0.0000 C   0  0  0  0  0  0  0  0  0  0  0  0
    1.2990    2.2500    0.0000 C   0  0  0  0  0  0  0  0  0  0  0  0
   -1.4270    1.9640    0.0000 C   0  0  0  0  0  0  0  0  0  0  0  0
   -2.3080    0.7500    0.0000 C   0  0  0  0  0  0  0  0  0  0  0  0
   -1.4270   -0.4640    0.0000 N   0  0  0  0  0  0  0  0  0  0  0  0
   -1.8900   -1.8900    0.0000 C   0  0  0  0  0  0  0  0  0  0  0  0
   -0.8860   -3.0050    0.0000 C   0  0  0  0  0  0  0  0  0  0  0  0
   -1.3500   -4.4310    0.0000 C   0  0  0  0  0  0  0  0  0  0  0  0
   -0.3460   -5.5460    0.0000 O   0  0  0  0  0  0  0  0  0  0  0  0
   -2.8170   -4.7430    0.0000 O   0  0  0  0  0  0  0  0  0  0  0  0
   -3.8000    0.9070    0.0000 C   0  0  0  0  0  0  0  0  0  0  0  0
   -4.4100    2.2770    0.0000 C   0  0  0  0  0  0  0  0  0  0  0  0
   -3.5280    3.4910    0.0000 C   0  0  3  0  0  0  0  0  0  0  0  0
   -2.0370    3.3340    0.0000 C   0  0  0  0  0  0  0  0  0  0  0  0
   -4.1390    4.8610    0.0000 N   0  0  0  0  0  0  0  0  0  0  0  0
   -5.6300    5.0180    0.0000 S   0  0  0  0  0  0  0  0  0  0  0  0
   -7.0860    4.6550    0.0000 O   0  0  0  0  0  0  0  0  0  0  0  0
   -5.5260    3.5210    0.0000 O   0  0  0  0  0  0  0  0  0  0  0  0
   -6.2400    6.3880    0.0000 C   0  0  0  0  0  0  0  0  0  0  0  0
   -5.3590    7.6020    0.0000 C   0  0  0  0  0  0  0  0  0  0  0  0
   -5.9690    8.9720    0.0000 C   0  0  0  0  0  0  0  0  0  0  0  0
   -7.4610    9.1290    0.0000 C   0  0  0  0  0  0  0  0  0  0  0  0
   -8.3420    7.9150    0.0000 C   0  0  0  0  0  0  0  0  0  0  0  0
   -7.7320    6.5450    0.0000 C   0  0  0  0  0  0  0  0  0  0  0  0
   -8.0710   10.4990    0.0000 F   0  0  0  0  0  0  0  0  0  0  0  0
  1  2  1  0  0  0  0
  1  6  2  0  0  0  0
  2  3  2  0  0  0  0
  3  4  1  0  0  0  0
  4  5  2  0  0  0  0
  4  9  1  0  0  0  0
  5  6  1  0  0  0  0
  5  7  1  0  0  0  0
  7  8  2  0  0  0  0
  7 18  1  0  0  0  0
  8  9  1  0  0  0  0
  8 15  1  0  0  0  0
  9 10  1  0  0  0  0
 10 11  1  0  0  0  0
 11 12  1  0  0  0  0
 12 13  2  0  0  0  0
 12 14  1  0  0  0  0
 15 16  1  0  0  0  0
 16 17  1  0  0  0  0
 17 18  1  0  0  0  0
 17 19  1  0  0  0  0
 19 20  1  0  0  0  0
 20 21  2  0  0  0  0
 20 22  2  0  0  0  0
 20 23  1  0  0  0  0
 23 24  1  0  0  0  0
 23 28  2  0  0  0  0
 24 25  2  0  0  0  0
 25 26  1  0  0  0  0
 26 27  2  0  0  0  0
 26 29  1  0  0  0  0
 27 28  1  0  0  0  0
M  END
>  <n>
526

>  <SMILES>
S(=O)(=O)(N[C@@H]1CCc2n(c3c(c2C1)cccc3)CCC(O)=O)c1ccc(F)cc1

>  <IC50>
62.4

>  <Class>
0

>  <NAME>
RAMATROBAN

>  <INCHI_KEY>
LDXDSHIEDAPSSA-OAHLLOKOSA-N

>  <Reference>
Mitigating the inhibition of human Bile Salt Export Pump by drugs_ opportunities provided by physicochemical property modulation,  in-silico modeling and structural modification_SI

$$$$
RAMELTEON
  MOE2013           2D

 19 21  0  0  1  0  0  0  0  0999 V2000
    7.2190    7.1790    0.0000 C   0  0  0  0  0  0  0  0  0  0  0  0
    5.7520    6.8670    0.0000 C   0  0  0  0  0  0  0  0  0  0  0  0
    5.2880    5.4400    0.0000 C   0  0  0  0  0  0  0  0  0  0  0  0
    6.2920    4.3260    0.0000 O   0  0  0  0  0  0  0  0  0  0  0  0
    3.8210    5.1290    0.0000 N   0  0  0  0  0  0  0  0  0  0  0  0
    3.3570    3.7020    0.0000 C   0  0  0  0  0  0  0  0  0  0  0  0
    1.8900    3.3900    0.0000 C   0  0  0  0  0  0  0  0  0  0  0  0
    1.4270    1.9640    0.0000 C   0  0  3  0  0  0  0  0  0  0  0  0
    2.3080    0.7500    0.0000 C   0  0  0  0  0  0  0  0  0  0  0  0
    1.4270   -0.4640    0.0000 C   0  0  0  0  0  0  0  0  0  0  0  0
    0.0000    0.0000    0.0000 C   0  0  0  0  0  0  0  0  0  0  0  0
    0.0000    1.5000    0.0000 C   0  0  0  0  0  0  0  0  0  0  0  0
   -1.2990    2.2500    0.0000 C   0  0  0  0  0  0  0  0  0  0  0  0
   -2.5980    1.5000    0.0000 C   0  0  0  0  0  0  0  0  0  0  0  0
   -2.5980    0.0000    0.0000 C   0  0  0  0  0  0  0  0  0  0  0  0
   -1.2990   -0.7500    0.0000 C   0  0  0  0  0  0  0  0  0  0  0  0
   -3.7130    2.5040    0.0000 O   0  0  0  0  0  0  0  0  0  0  0  0
   -3.1030    3.8740    0.0000 C   0  0  0  0  0  0  0  0  0  0  0  0
   -1.6110    3.7170    0.0000 C   0  0  0  0  0  0  0  0  0  0  0  0
  1  2  1  0  0  0  0
  2  3  1  0  0  0  0
  3  4  2  0  0  0  0
  3  5  1  0  0  0  0
  5  6  1  0  0  0  0
  6  7  1  0  0  0  0
  7  8  1  0  0  0  0
  8  9  1  0  0  0  0
  8 12  1  0  0  0  0
  9 10  1  0  0  0  0
 10 11  1  0  0  0  0
 11 12  1  0  0  0  0
 11 16  2  0  0  0  0
 12 13  2  0  0  0  0
 13 14  1  0  0  0  0
 13 19  1  0  0  0  0
 14 15  2  0  0  0  0
 14 17  1  0  0  0  0
 15 16  1  0  0  0  0
 17 18  1  0  0  0  0
 18 19  1  0  0  0  0
M  END
>  <n>
527

>  <SMILES>
O1CCc2c3c(CC[C@H]3CCNC(=O)CC)ccc12

>  <IC50>
85.37

>  <Class>
0

>  <NAME>
RAMELTEON

>  <INCHI_KEY>
YLXDSYKOBKBWJQ-LBPRGKRZSA-N

>  <Reference>
Mitigating the inhibition of human Bile Salt Export Pump by drugs_ opportunities provided by physicochemical property modulation,  in-silico modeling and structural modification_SI

$$$$
Ranitidine
  MOE2013           2D

 21 21  0  0  0  0  0  0  0  0999 V2000
    9.2790    1.2870    0.0000 C   0  0  0  0  0  0  0  0  0  0  0  0
    7.9080    0.6770    0.0000 N   0  0  0  0  0  0  0  0  0  0  0  0
    7.7520   -0.8150    0.0000 C   0  0  0  0  0  0  0  0  0  0  0  0
    8.9650   -1.6960    0.0000 C   0  0  0  0  0  0  0  0  0  0  0  0
   10.3350   -1.0860    0.0000 N   0  3  0  0  0  0  0  0  0  0  0  0
   11.5490   -1.9680    0.0000 O   0  0  0  0  0  0  0  0  0  0  0  0
   10.4920    0.4060    0.0000 O   0  5  0  0  0  0  0  0  0  0  0  0
    6.3810   -1.4250    0.0000 N   0  0  0  0  0  0  0  0  0  0  0  0
    5.1680   -0.5430    0.0000 C   0  0  0  0  0  0  0  0  0  0  0  0
    3.7970   -1.1530    0.0000 C   0  0  0  0  0  0  0  0  0  0  0  0
    2.5840   -0.2720    0.0000 S   0  0  0  0  0  0  0  0  0  0  0  0
    1.2140   -0.8820    0.0000 C   0  0  0  0  0  0  0  0  0  0  0  0
    0.0000    0.0000    0.0000 C   0  0  0  0  0  0  0  0  0  0  0  0
    0.0000    1.5000    0.0000 C   0  0  0  0  0  0  0  0  0  0  0  0
   -1.4270    1.9640    0.0000 C   0  0  0  0  0  0  0  0  0  0  0  0
   -2.3080    0.7500    0.0000 C   0  0  0  0  0  0  0  0  0  0  0  0
   -1.4270   -0.4640    0.0000 O   0  0  0  0  0  0  0  0  0  0  0  0
   -3.8080    0.7500    0.0000 C   0  0  0  0  0  0  0  0  0  0  0  0
   -4.5580    2.0490    0.0000 N   0  0  0  0  0  0  0  0  0  0  0  0
   -6.0580    2.0490    0.0000 C   0  0  0  0  0  0  0  0  0  0  0  0
   -3.8080    3.3480    0.0000 C   0  0  0  0  0  0  0  0  0  0  0  0
  1  2  1  0  0  0  0
  2  3  1  0  0  0  0
  3  4  2  0  0  0  0
  3  8  1  0  0  0  0
  4  5  1  0  0  0  0
  5  6  2  0  0  0  0
  5  7  1  0  0  0  0
  8  9  1  0  0  0  0
  9 10  1  0  0  0  0
 10 11  1  0  0  0  0
 11 12  1  0  0  0  0
 12 13  1  0  0  0  0
 13 14  2  0  0  0  0
 13 17  1  0  0  0  0
 14 15  1  0  0  0  0
 15 16  2  0  0  0  0
 16 17  1  0  0  0  0
 16 18  1  0  0  0  0
 18 19  1  0  0  0  0
 19 20  1  0  0  0  0
 19 21  1  0  0  0  0
M  CHG  1   5   1
M  CHG  1   7  -1
M  END
>  <n>
203

>  <SMILES>
S(Cc1oc(cc1)CN(C)C)CCNC(NC)=C[N+](=O)[O-]

>  <IC50>
>1000

>  <Class>
0

>  <NAME>
RANITIDINE

>  <INCHI_KEY>
VMXUWOKSQNHOCA-UHFFFAOYSA-N

>  <Reference>
Mitigating, Dawson

$$$$
REMACEMIDE
  MOE2013           2D

 20 21  0  0  1  0  0  0  0  0999 V2000
    2.7760   -1.0100    0.0000 C   0  0  0  0  0  0  0  0  0  0  0  0
    1.2990   -0.7500    0.0000 C   0  0  3  0  0  0  0  0  0  0  0  0
    1.8120    0.6600    0.0000 C   0  0  0  0  0  0  0  0  0  0  0  0
    3.2890    0.9200    0.0000 C   0  0  0  0  0  0  0  0  0  0  0  0
    4.2540   -0.2290    0.0000 C   0  0  0  0  0  0  0  0  0  0  0  0
    5.7310    0.0310    0.0000 C   0  0  0  0  0  0  0  0  0  0  0  0
    6.2440    1.4410    0.0000 C   0  0  0  0  0  0  0  0  0  0  0  0
    5.2800    2.5900    0.0000 C   0  0  0  0  0  0  0  0  0  0  0  0
    3.8020    2.3300    0.0000 C   0  0  0  0  0  0  0  0  0  0  0  0
    0.0000    0.0000    0.0000 C   0  0  0  0  0  0  0  0  0  0  0  0
    0.0000    1.5000    0.0000 C   0  0  0  0  0  0  0  0  0  0  0  0
   -1.2990    2.2500    0.0000 C   0  0  0  0  0  0  0  0  0  0  0  0
   -2.5980    1.5000    0.0000 C   0  0  0  0  0  0  0  0  0  0  0  0
   -2.5980    0.0000    0.0000 C   0  0  0  0  0  0  0  0  0  0  0  0
   -1.2990   -0.7500    0.0000 C   0  0  0  0  0  0  0  0  0  0  0  0
    1.2990   -2.2500    0.0000 N   0  0  0  0  0  0  0  0  0  0  0  0
    2.5980   -3.0000    0.0000 C   0  0  0  0  0  0  0  0  0  0  0  0
    3.8970   -2.2500    0.0000 O   0  0  0  0  0  0  0  0  0  0  0  0
    2.5980   -4.5000    0.0000 C   0  0  0  0  0  0  0  0  0  0  0  0
    3.8970   -5.2500    0.0000 N   0  0  0  0  0  0  0  0  0  0  0  0
  1  2  1  0  0  0  0
  2  3  1  0  0  0  0
  2 10  1  0  0  0  0
  2 16  1  0  0  0  0
  3  4  1  0  0  0  0
  4  5  1  0  0  0  0
  4  9  2  0  0  0  0
  5  6  2  0  0  0  0
  6  7  1  0  0  0  0
  7  8  2  0  0  0  0
  8  9  1  0  0  0  0
 10 11  1  0  0  0  0
 10 15  2  0  0  0  0
 11 12  2  0  0  0  0
 12 13  1  0  0  0  0
 13 14  2  0  0  0  0
 14 15  1  0  0  0  0
 16 17  1  0  0  0  0
 17 18  2  0  0  0  0
 17 19  1  0  0  0  0
 19 20  1  0  0  0  0
M  END
>  <n>
528

>  <SMILES>
O=C(NC(Cc1ccccc1)(C)c1ccccc1)CN

>  <IC50>
288.1

>  <Class>
0

>  <NAME>
REMACEMIDE

>  <INCHI_KEY>
YSGASDXSLKIKOD-UHFFFAOYSA-N

>  <Reference>
Mitigating the inhibition of human Bile Salt Export Pump by drugs_ opportunities provided by physicochemical property modulation,  in-silico modeling and structural modification_SI

$$$$
REMOXIPRIDE
  MOE2013           2D

 22 23  0  0  1  0  0  0  0  0999 V2000
    2.5840   -0.2720    0.0000 C   0  0  0  0  0  0  0  0  0  0  0  0
    1.2140   -0.8820    0.0000 C   0  0  0  0  0  0  0  0  0  0  0  0
    0.0000    0.0000    0.0000 N   0  0  3  0  0  0  0  0  0  0  0  0
    0.0000    1.5000    0.0000 C   0  0  0  0  0  0  0  0  0  0  0  0
   -1.4270    1.9640    0.0000 C   0  0  0  0  0  0  0  0  0  0  0  0
   -2.3080    0.7500    0.0000 C   0  0  0  0  0  0  0  0  0  0  0  0
   -1.4270   -0.4640    0.0000 C   0  0  3  0  0  0  0  0  0  0  0  0
   -1.8900   -1.8900    0.0000 C   0  0  0  0  0  0  0  0  0  0  0  0
   -3.3570   -2.2020    0.0000 N   0  0  0  0  0  0  0  0  0  0  0  0
   -3.8210   -3.6290    0.0000 C   0  0  0  0  0  0  0  0  0  0  0  0
   -2.8170   -4.7430    0.0000 O   0  0  0  0  0  0  0  0  0  0  0  0
   -5.2880   -3.9400    0.0000 C   0  0  0  0  0  0  0  0  0  0  0  0
   -6.2920   -2.8260    0.0000 C   0  0  0  0  0  0  0  0  0  0  0  0
   -7.7590   -3.1380    0.0000 C   0  0  0  0  0  0  0  0  0  0  0  0
   -8.2220   -4.5640    0.0000 C   0  0  0  0  0  0  0  0  0  0  0  0
   -7.2190   -5.6790    0.0000 C   0  0  0  0  0  0  0  0  0  0  0  0
   -5.7520   -5.3670    0.0000 C   0  0  0  0  0  0  0  0  0  0  0  0
   -4.7480   -6.4820    0.0000 O   0  0  0  0  0  0  0  0  0  0  0  0
   -5.2110   -7.9080    0.0000 C   0  0  0  0  0  0  0  0  0  0  0  0
   -7.6820   -7.1060    0.0000 Br  0  0  0  0  0  0  0  0  0  0  0  0
   -5.8280   -1.3990    0.0000 O   0  0  0  0  0  0  0  0  0  0  0  0
   -6.8320   -0.2840    0.0000 C   0  0  0  0  0  0  0  0  0  0  0  0
  1  2  1  0  0  0  0
  2  3  1  0  0  0  0
  3  4  1  0  0  0  0
  3  7  1  0  0  0  0
  4  5  1  0  0  0  0
  5  6  1  0  0  0  0
  6  7  1  0  0  0  0
  7  8  1  0  0  0  0
  8  9  1  0  0  0  0
  9 10  1  0  0  0  0
 10 11  2  0  0  0  0
 10 12  1  0  0  0  0
 12 13  1  0  0  0  0
 12 17  2  0  0  0  0
 13 14  2  0  0  0  0
 13 21  1  0  0  0  0
 14 15  1  0  0  0  0
 15 16  2  0  0  0  0
 16 17  1  0  0  0  0
 16 20  1  0  0  0  0
 17 18  1  0  0  0  0
 18 19  1  0  0  0  0
 21 22  1  0  0  0  0
M  END
>  <n>
529

>  <SMILES>
Brc1ccc(OC)c(C(=O)NC[C@H]2N(CCC2)CC)c1OC

>  <IC50>
<10

>  <Class>
1

>  <NAME>
REMOXIPRIDE

>  <INCHI_KEY>
GUJRSXAPGDDABA-NSHDSACASA-N

>  <Reference>
Mitigating

$$$$
RESERPINE
  MOE2013           2D

 44 49  0  0  1  0  0  0  0  0999 V2000
    5.1960    1.5000    0.0000 C   0  0  0  0  0  0  0  0  0  0  0  0
    3.8970    2.2500    0.0000 O   0  0  0  0  0  0  0  0  0  0  0  0
    2.5980    1.5000    0.0000 C   0  0  0  0  0  0  0  0  0  0  0  0
    2.5980    0.0000    0.0000 C   0  0  0  0  0  0  0  0  0  0  0  0
    1.2990   -0.7500    0.0000 C   0  0  0  0  0  0  0  0  0  0  0  0
    0.0000    0.0000    0.0000 C   0  0  0  0  0  0  0  0  0  0  0  0
    0.0000    1.5000    0.0000 C   0  0  0  0  0  0  0  0  0  0  0  0
    1.2990    2.2500    0.0000 C   0  0  0  0  0  0  0  0  0  0  0  0
   -1.4270    1.9640    0.0000 N   0  0  0  0  0  0  0  0  0  0  0  0
   -2.3080    0.7500    0.0000 C   0  0  0  0  0  0  0  0  0  0  0  0
   -1.4270   -0.4640    0.0000 C   0  0  0  0  0  0  0  0  0  0  0  0
   -2.0370   -1.8340    0.0000 C   0  0  0  0  0  0  0  0  0  0  0  0
   -3.5280   -1.9910    0.0000 C   0  0  0  0  0  0  0  0  0  0  0  0
   -4.4100   -0.7770    0.0000 N   0  0  3  0  0  0  0  0  0  0  0  0
   -3.8000    0.5930    0.0000 C   0  0  3  0  0  0  0  0  0  0  0  0
   -4.6820    1.8070    0.0000 C   0  0  0  0  0  0  0  0  0  0  0  0
   -6.1740    1.6500    0.0000 C   0  0  3  0  0  0  0  0  0  0  0  0
   -6.7840    0.2800    0.0000 C   0  0  3  0  0  0  0  0  0  0  0  0
   -5.9020   -0.9340    0.0000 C   0  0  0  0  0  0  0  0  0  0  0  0
   -8.2750    0.1230    0.0000 C   0  0  0  0  0  0  0  0  0  0  0  0
   -9.1570    1.3360    0.0000 C   0  0  3  0  0  0  0  0  0  0  0  0
   -8.5470    2.7070    0.0000 C   0  0  3  0  0  0  0  0  0  0  0  0
   -7.0550    2.8640    0.0000 C   0  0  3  0  0  0  0  0  0  0  0  0
   -6.4450    4.2340    0.0000 C   0  0  0  0  0  0  0  0  0  0  0  0
   -4.9530    4.3910    0.0000 O   0  0  0  0  0  0  0  0  0  0  0  0
   -7.3270    5.4470    0.0000 O   0  0  0  0  0  0  0  0  0  0  0  0
   -8.8180    5.2900    0.0000 C   0  0  0  0  0  0  0  0  0  0  0  0
   -9.4290    3.9200    0.0000 O   0  0  0  0  0  0  0  0  0  0  0  0
  -10.9200    3.7630    0.0000 C   0  0  0  0  0  0  0  0  0  0  0  0
  -10.6490    1.1800    0.0000 O   0  0  0  0  0  0  0  0  0  0  0  0
  -11.5300    2.3930    0.0000 C   0  0  0  0  0  0  0  0  0  0  0  0
  -10.9200    3.7630    0.0000 O   0  0  0  0  0  0  0  0  0  0  0  0
  -13.0220    2.2360    0.0000 C   0  0  0  0  0  0  0  0  0  0  0  0
  -13.9040    3.4500    0.0000 C   0  0  0  0  0  0  0  0  0  0  0  0
  -15.3960    3.2930    0.0000 C   0  0  0  0  0  0  0  0  0  0  0  0
  -16.0060    1.9230    0.0000 C   0  0  0  0  0  0  0  0  0  0  0  0
  -15.1240    0.7090    0.0000 C   0  0  0  0  0  0  0  0  0  0  0  0
  -13.6320    0.8660    0.0000 C   0  0  0  0  0  0  0  0  0  0  0  0
  -15.7340   -0.6610    0.0000 O   0  0  0  0  0  0  0  0  0  0  0  0
  -17.2260   -0.8180    0.0000 C   0  0  0  0  0  0  0  0  0  0  0  0
  -17.4980    1.7660    0.0000 O   0  0  0  0  0  0  0  0  0  0  0  0
  -18.3790    2.9790    0.0000 C   0  0  0  0  0  0  0  0  0  0  0  0
  -16.2780    4.5070    0.0000 O   0  0  0  0  0  0  0  0  0  0  0  0
  -17.7690    4.3500    0.0000 C   0  0  0  0  0  0  0  0  0  0  0  0
  1  2  1  0  0  0  0
  2  3  1  0  0  0  0
  3  4  1  0  0  0  0
  3  8  2  0  0  0  0
  4  5  2  0  0  0  0
  5  6  1  0  0  0  0
  6  7  2  0  0  0  0
  6 11  1  0  0  0  0
  7  8  1  0  0  0  0
  7  9  1  0  0  0  0
  9 10  1  0  0  0  0
 10 11  2  0  0  0  0
 10 15  1  0  0  0  0
 11 12  1  0  0  0  0
 12 13  1  0  0  0  0
 13 14  1  0  0  0  0
 14 15  1  0  0  0  0
 14 19  1  0  0  0  0
 15 16  1  0  0  0  0
 16 17  1  0  0  0  0
 17 18  1  0  0  0  0
 17 23  1  0  0  0  0
 18 19  1  0  0  0  0
 18 20  1  0  0  0  0
 20 21  1  0  0  0  0
 21 22  1  0  0  0  0
 21 30  1  0  0  0  0
 22 23  1  0  0  0  0
 22 28  1  0  0  0  0
 23 24  1  0  0  0  0
 24 25  2  0  0  0  0
 24 26  1  0  0  0  0
 26 27  1  0  0  0  0
 28 29  1  0  0  0  0
 30 31  1  0  0  0  0
 31 32  2  0  0  0  0
 31 33  1  0  0  0  0
 33 34  1  0  0  0  0
 33 38  2  0  0  0  0
 34 35  2  0  0  0  0
 35 36  1  0  0  0  0
 35 43  1  0  0  0  0
 36 37  2  0  0  0  0
 36 41  1  0  0  0  0
 37 38  1  0  0  0  0
 37 39  1  0  0  0  0
 39 40  1  0  0  0  0
 41 42  1  0  0  0  0
 43 44  1  0  0  0  0
M  END
>  <n>
530

>  <SMILES>
O(C)c1c(OC)cc(cc1OC)C(O[C@@H]1C[C@H]2[C@H](C[C@H]3N(CCc4c5c([nH]c34)cc(OC)cc5)C2)[C@H](C(OC)=O)[C@H]1OC)=O

>  <IC50>
<10

>  <Class>
1

>  <NAME>
RESERPINE

>  <INCHI_KEY>
QEVHRUUCFGRFIF-MDEJGZGSSA-N

>  <Reference>
Mitigating, Interference

$$$$
Rifamycin_SV
  MOE2013           2D

 50 53  0  0  1  0  0  0  0  0999 V2000
    0.0000    0.0000    0.0000 C   0  0  3  0  0  0  0  0  0  0  0  0
    0.0000    1.5000    0.0000 C   0  0  0  0  0  0  0  0  0  0  0  0
   -0.3880    2.9490    0.0000 C   0  0  0  0  0  0  0  0  0  0  0  0
   -1.1380    4.2480    0.0000 C   0  0  0  0  0  0  0  0  0  0  0  0
   -2.1990    5.3090    0.0000 C   0  0  0  0  0  0  0  0  0  0  0  0
   -0.4580    6.5250    0.0000 C   0  0  0  0  0  0  0  0  0  0  0  0
   -0.6750    8.0100    0.0000 O   0  0  0  0  0  0  0  0  0  0  0  0
    1.1380    5.9950    0.0000 C   0  0  0  0  0  0  0  0  0  0  0  0
    1.2380    4.3150    0.0000 C   0  0  0  0  0  0  0  0  0  0  0  0
    2.1610    0.8900    0.0000 O   0  0  0  0  0  0  0  0  0  0  0  0
    2.3280    6.9080    0.0000 C   0  0  0  0  0  0  0  0  0  0  0  0
   -3.4980    6.0590    0.0000 C   0  0  0  0  0  0  0  0  0  0  0  0
   -4.9470    6.4470    0.0000 C   0  0  0  0  0  0  0  0  0  0  0  0
   -6.4470    6.4470    0.0000 N   0  0  0  0  0  0  0  0  0  0  0  0
   -7.8960    6.0590    0.0000 C   0  0  0  0  0  0  0  0  0  0  0  0
   -9.1950    5.3090    0.0000 C   0  0  0  0  0  0  0  0  0  0  0  0
  -10.2550    4.2480    0.0000 C   0  0  0  0  0  0  0  0  0  0  0  0
  -11.0050    2.9490    0.0000 C   0  0  0  0  0  0  0  0  0  0  0  0
  -11.3940    1.5000    0.0000 C   0  0  0  0  0  0  0  0  0  0  0  0
  -11.3940    0.0000    0.0000 C   0  0  3  0  0  0  0  0  0  0  0  0
  -11.0050   -1.4490    0.0000 C   0  0  3  0  0  0  0  0  0  0  0  0
  -12.3910   -2.0230    0.0000 O   0  0  0  0  0  0  0  0  0  0  0  0
  -10.2550   -2.7480    0.0000 C   0  0  3  0  0  0  0  0  0  0  0  0
   -9.1950   -3.8090    0.0000 C   0  0  3  0  0  0  0  0  0  0  0  0
   -7.8960   -4.5590    0.0000 C   0  0  3  0  0  0  0  0  0  0  0  0
   -6.4470   -4.9470    0.0000 C   0  0  3  0  0  0  0  0  0  0  0  0
   -4.9470   -4.9470    0.0000 C   0  0  3  0  0  0  0  0  0  0  0  0
   -3.4980   -4.5590    0.0000 C   0  0  3  0  0  0  0  0  0  0  0  0
   -2.1990   -3.8090    0.0000 C   0  0  0  0  0  0  0  0  0  0  0  0
   -1.1380   -2.7480    0.0000 C   0  0  0  0  0  0  0  0  0  0  0  0
   -0.3880   -1.4490    0.0000 O   0  0  0  0  0  0  0  0  0  0  0  0
   -2.9240   -5.9440    0.0000 O   0  0  0  0  0  0  0  0  0  0  0  0
   -3.8370   -7.1340    0.0000 C   0  0  0  0  0  0  0  0  0  0  0  0
   -4.7510   -6.4340    0.0000 C   0  0  0  0  0  0  0  0  0  0  0  0
   -6.6430   -6.4340    0.0000 O   0  0  0  0  0  0  0  0  0  0  0  0
   -8.0280   -7.0080    0.0000 C   0  0  0  0  0  0  0  0  0  0  0  0
   -8.2240   -8.4950    0.0000 C   0  0  0  0  0  0  0  0  0  0  0  0
   -9.2180   -6.0950    0.0000 O   0  0  0  0  0  0  0  0  0  0  0  0
   -8.4700   -5.9440    0.0000 C   0  0  0  0  0  0  0  0  0  0  0  0
  -10.1080   -4.9990    0.0000 O   0  0  0  0  0  0  0  0  0  0  0  0
  -11.4450   -3.6610    0.0000 C   0  0  0  0  0  0  0  0  0  0  0  0
  -12.8810   -0.1960    0.0000 C   0  0  0  0  0  0  0  0  0  0  0  0
  -10.1080    6.4990    0.0000 C   0  0  0  0  0  0  0  0  0  0  0  0
   -8.4700    7.4440    0.0000 O   0  0  0  0  0  0  0  0  0  0  0  0
   -2.5210    8.2790    0.0000 C   0  0  0  0  0  0  0  0  0  0  0  0
   -0.7650    7.2650    0.0000 C   0  0  0  0  0  0  0  0  0  0  0  0
    0.5780    7.9330    0.0000 O   0  0  0  0  0  0  0  0  0  0  0  0
   -2.9240    7.4440    0.0000 O   0  0  0  0  0  0  0  0  0  0  0  0
    1.4870    1.6960    0.0000 O   0  0  0  0  0  0  0  0  0  0  0  0
    1.1270   -0.9900    0.0000 C   0  0  0  0  0  0  0  0  0  0  0  0
  1  2  1  0  0  0  0
  1 10  1  0  0  0  0
  1 31  1  0  0  0  0
  1 50  1  0  0  0  0
  2  3  1  0  0  0  0
  2 49  2  0  0  0  0
  3  4  1  0  0  0  0
  3  9  2  0  0  0  0
  4  5  1  0  0  0  0
  4 46  2  0  0  0  0
  5  6  1  0  0  0  0
  5 12  2  0  0  0  0
  6  7  1  0  0  0  0
  6  8  2  0  0  0  0
  8  9  1  0  0  0  0
  8 11  1  0  0  0  0
  9 10  1  0  0  0  0
 12 13  1  0  0  0  0
 12 48  1  0  0  0  0
 13 14  1  0  0  0  0
 13 45  2  0  0  0  0
 14 15  1  0  0  0  0
 15 16  1  0  0  0  0
 15 44  2  0  0  0  0
 16 17  2  0  0  0  0
 16 43  1  0  0  0  0
 17 18  1  0  0  0  0
 18 19  2  0  0  0  0
 19 20  1  0  0  0  0
 20 21  1  0  0  0  0
 20 42  1  0  0  0  0
 21 22  1  0  0  0  0
 21 23  1  0  0  0  0
 23 24  1  0  0  0  0
 23 41  1  0  0  0  0
 24 25  1  0  0  0  0
 24 40  1  0  0  0  0
 25 26  1  0  0  0  0
 25 39  1  0  0  0  0
 26 27  1  0  0  0  0
 26 35  1  0  0  0  0
 27 28  1  0  0  0  0
 27 34  1  0  0  0  0
 28 29  1  0  0  0  0
 28 32  1  0  0  0  0
 29 30  2  0  0  0  0
 30 31  1  0  0  0  0
 32 33  1  0  0  0  0
 35 36  1  0  0  0  0
 36 37  1  0  0  0  0
 36 38  2  0  0  0  0
 45 46  1  0  0  0  0
 46 47  1  0  0  0  0
M  END
>  <n>
72

>  <IC50>
6.3

>  <Class>
1

>  <NAME>
RIFAMYCIN_SV

>  <INCHI_KEY>
HJYYPODYNSCCOU-ODRIEIDWSA-N

>  <Reference>
Dawson

$$$$
RILUZOLE
  MOE2013           2D

 15 16  0  0  0  0  0  0  0  0999 V2000
    2.5980    0.0000    0.0000 C   0  0  0  0  0  0  0  0  0  0  0  0
    1.2990   -0.7500    0.0000 C   0  0  0  0  0  0  0  0  0  0  0  0
    0.0000    0.0000    0.0000 C   0  0  0  0  0  0  0  0  0  0  0  0
    0.0000    1.5000    0.0000 C   0  0  0  0  0  0  0  0  0  0  0  0
    1.2990    2.2500    0.0000 C   0  0  0  0  0  0  0  0  0  0  0  0
    2.5980    1.5000    0.0000 C   0  0  0  0  0  0  0  0  0  0  0  0
    3.8970    2.2500    0.0000 O   0  0  0  0  0  0  0  0  0  0  0  0
    5.1960    1.5000    0.0000 C   0  0  0  0  0  0  0  0  0  0  0  0
    6.4950    2.2500    0.0000 F   0  0  0  0  0  0  0  0  0  0  0  0
    4.2320    0.3510    0.0000 F   0  0  0  0  0  0  0  0  0  0  0  0
    6.1600    0.3510    0.0000 F   0  0  0  0  0  0  0  0  0  0  0  0
   -1.4270    1.9640    0.0000 S   0  0  0  0  0  0  0  0  0  0  0  0
   -2.3080    0.7500    0.0000 C   0  0  0  0  0  0  0  0  0  0  0  0
   -1.4270   -0.4640    0.0000 N   0  0  0  0  0  0  0  0  0  0  0  0
   -3.8080    0.7500    0.0000 N   0  0  0  0  0  0  0  0  0  0  0  0
  1  2  1  0  0  0  0
  1  6  2  0  0  0  0
  2  3  2  0  0  0  0
  3  4  1  0  0  0  0
  3 14  1  0  0  0  0
  4  5  2  0  0  0  0
  4 12  1  0  0  0  0
  5  6  1  0  0  0  0
  6  7  1  0  0  0  0
  7  8  1  0  0  0  0
  8  9  1  0  0  0  0
  8 10  1  0  0  0  0
  8 11  1  0  0  0  0
 12 13  1  0  0  0  0
 13 14  2  0  0  0  0
 13 15  1  0  0  0  0
M  END
>  <n>
531

>  <SMILES>
s1c2cc(OC(F)(F)F)ccc2nc1N

>  <IC50>
139

>  <Class>
0

>  <NAME>
RILUZOLE

>  <INCHI_KEY>
FTALBRSUTCGOEG-UHFFFAOYSA-N

>  <Reference>
Mitigating the inhibition of human Bile Salt Export Pump by drugs_ opportunities provided by physicochemical property modulation,  in-silico modeling and structural modification_SI

$$$$
RIMONABANT
  MOE2013           2D

 30 33  0  0  0  0  0  0  0  0999 V2000
    1.2140   -0.8820    0.0000 C   0  0  0  0  0  0  0  0  0  0  0  0
    0.0000    0.0000    0.0000 C   0  0  0  0  0  0  0  0  0  0  0  0
    0.0000    1.5000    0.0000 C   0  0  0  0  0  0  0  0  0  0  0  0
   -1.4270    1.9640    0.0000 N   0  0  0  0  0  0  0  0  0  0  0  0
   -2.3080    0.7500    0.0000 N   0  0  0  0  0  0  0  0  0  0  0  0
   -1.4270   -0.4640    0.0000 C   0  0  0  0  0  0  0  0  0  0  0  0
   -1.8900   -1.8900    0.0000 C   0  0  0  0  0  0  0  0  0  0  0  0
   -0.8860   -3.0050    0.0000 O   0  0  0  0  0  0  0  0  0  0  0  0
   -3.3570   -2.2020    0.0000 N   0  0  0  0  0  0  0  0  0  0  0  0
   -3.8210   -3.6290    0.0000 N   0  0  0  0  0  0  0  0  0  0  0  0
   -5.2880   -3.9400    0.0000 C   0  0  0  0  0  0  0  0  0  0  0  0
   -5.7520   -5.3670    0.0000 C   0  0  0  0  0  0  0  0  0  0  0  0
   -4.7480   -6.4820    0.0000 C   0  0  0  0  0  0  0  0  0  0  0  0
   -3.2810   -6.1700    0.0000 C   0  0  0  0  0  0  0  0  0  0  0  0
   -2.8170   -4.7430    0.0000 C   0  0  0  0  0  0  0  0  0  0  0  0
   -1.8900    3.3900    0.0000 C   0  0  0  0  0  0  0  0  0  0  0  0
   -0.8860    4.5050    0.0000 C   0  0  0  0  0  0  0  0  0  0  0  0
   -1.3500    5.9310    0.0000 C   0  0  0  0  0  0  0  0  0  0  0  0
   -2.8170    6.2430    0.0000 C   0  0  0  0  0  0  0  0  0  0  0  0
   -3.8210    5.1290    0.0000 C   0  0  0  0  0  0  0  0  0  0  0  0
   -3.3570    3.7020    0.0000 C   0  0  0  0  0  0  0  0  0  0  0  0
   -4.3610    2.5870    0.0000 Cl  0  0  0  0  0  0  0  0  0  0  0  0
   -3.2810    7.6700    0.0000 Cl  0  0  0  0  0  0  0  0  0  0  0  0
    1.2140    2.3820    0.0000 C   0  0  0  0  0  0  0  0  0  0  0  0
    2.5840    1.7720    0.0000 C   0  0  0  0  0  0  0  0  0  0  0  0
    3.7970    2.6530    0.0000 C   0  0  0  0  0  0  0  0  0  0  0  0
    3.6410    4.1450    0.0000 C   0  0  0  0  0  0  0  0  0  0  0  0
    2.2700    4.7550    0.0000 C   0  0  0  0  0  0  0  0  0  0  0  0
    1.0570    3.8740    0.0000 C   0  0  0  0  0  0  0  0  0  0  0  0
    4.8540    5.0270    0.0000 Cl  0  0  0  0  0  0  0  0  0  0  0  0
  1  2  1  0  0  0  0
  2  3  2  0  0  0  0
  2  6  1  0  0  0  0
  3  4  1  0  0  0  0
  3 24  1  0  0  0  0
  4  5  1  0  0  0  0
  4 16  1  0  0  0  0
  5  6  2  0  0  0  0
  6  7  1  0  0  0  0
  7  8  2  0  0  0  0
  7  9  1  0  0  0  0
  9 10  1  0  0  0  0
 10 11  1  0  0  0  0
 10 15  1  0  0  0  0
 11 12  1  0  0  0  0
 12 13  1  0  0  0  0
 13 14  1  0  0  0  0
 14 15  1  0  0  0  0
 16 17  1  0  0  0  0
 16 21  2  0  0  0  0
 17 18  2  0  0  0  0
 18 19  1  0  0  0  0
 19 20  2  0  0  0  0
 19 23  1  0  0  0  0
 20 21  1  0  0  0  0
 21 22  1  0  0  0  0
 24 25  1  0  0  0  0
 24 29  2  0  0  0  0
 25 26  2  0  0  0  0
 26 27  1  0  0  0  0
 27 28  2  0  0  0  0
 27 30  1  0  0  0  0
 28 29  1  0  0  0  0
M  END
>  <n>
532

>  <SMILES>
Clc1cc(Cl)ccc1-n1nc(C(=O)NN2CCCCC2)c(C)c1-c1ccc(Cl)cc1

>  <IC50>
<10

>  <Class>
1

>  <NAME>
RIMONABANT

>  <INCHI_KEY>
JZCPYUJPEARBJL-UHFFFAOYSA-N

>  <Reference>
Mitigating the inhibition of human Bile Salt Export Pump by drugs_ opportunities provided by physicochemical property modulation,  in-silico modeling and structural modification_SI

$$$$
Ritonavir
  MOE2013           2D

 50 53  0  0  1  0  0  0  0  0999 V2000
   10.3350   -1.0860    0.0000 C   0  0  3  0  0  0  0  0  0  0  0  0
   10.4920    0.4060    0.0000 C   0  0  0  0  0  0  0  0  0  0  0  0
   11.8620    1.0160    0.0000 C   0  0  0  0  0  0  0  0  0  0  0  0
   13.0760    0.1340    0.0000 C   0  0  0  0  0  0  0  0  0  0  0  0
   14.4460    0.7440    0.0000 C   0  0  0  0  0  0  0  0  0  0  0  0
   14.6030    2.2360    0.0000 C   0  0  0  0  0  0  0  0  0  0  0  0
   13.3900    3.1180    0.0000 C   0  0  0  0  0  0  0  0  0  0  0  0
   12.0190    2.5070    0.0000 C   0  0  0  0  0  0  0  0  0  0  0  0
    8.9650   -1.6960    0.0000 C   0  0  0  0  0  0  0  0  0  0  0  0
    7.7520   -0.8150    0.0000 C   0  0  3  0  0  0  0  0  0  0  0  0
    6.3810   -1.4250    0.0000 C   0  0  3  0  0  0  0  0  0  0  0  0
    6.2240   -2.9170    0.0000 C   0  0  0  0  0  0  0  0  0  0  0  0
    4.8540   -3.5270    0.0000 C   0  0  0  0  0  0  0  0  0  0  0  0
    3.6410   -2.6450    0.0000 C   0  0  0  0  0  0  0  0  0  0  0  0
    2.2700   -3.2550    0.0000 C   0  0  0  0  0  0  0  0  0  0  0  0
    2.1140   -4.7470    0.0000 C   0  0  0  0  0  0  0  0  0  0  0  0
    3.3270   -5.6290    0.0000 C   0  0  0  0  0  0  0  0  0  0  0  0
    4.6970   -5.0180    0.0000 C   0  0  0  0  0  0  0  0  0  0  0  0
    5.1680   -0.5430    0.0000 N   0  0  0  0  0  0  0  0  0  0  0  0
    3.7970   -1.1530    0.0000 C   0  0  0  0  0  0  0  0  0  0  0  0
    2.5840   -0.2720    0.0000 O   0  0  0  0  0  0  0  0  0  0  0  0
    1.2140   -0.8820    0.0000 C   0  0  0  0  0  0  0  0  0  0  0  0
    0.0000    0.0000    0.0000 C   0  0  0  0  0  0  0  0  0  0  0  0
    0.0000    1.5000    0.0000 C   0  0  0  0  0  0  0  0  0  0  0  0
   -1.4270    1.9640    0.0000 N   0  0  0  0  0  0  0  0  0  0  0  0
   -2.3080    0.7500    0.0000 C   0  0  0  0  0  0  0  0  0  0  0  0
   -1.4270   -0.4640    0.0000 S   0  0  0  0  0  0  0  0  0  0  0  0
    3.6410   -2.6450    0.0000 O   0  0  0  0  0  0  0  0  0  0  0  0
    7.9080    0.6770    0.0000 O   0  0  0  0  0  0  0  0  0  0  0  0
   11.5490   -1.9680    0.0000 N   0  0  0  0  0  0  0  0  0  0  0  0
   12.9190   -1.3580    0.0000 C   0  0  0  0  0  0  0  0  0  0  0  0
   14.1330   -2.2400    0.0000 C   0  0  3  0  0  0  0  0  0  0  0  0
   15.5030   -1.6290    0.0000 N   0  0  0  0  0  0  0  0  0  0  0  0
   16.7170   -2.5110    0.0000 C   0  0  0  0  0  0  0  0  0  0  0  0
   18.0870   -1.9010    0.0000 N   0  0  0  0  0  0  0  0  0  0  0  0
   19.3000   -2.7830    0.0000 C   0  0  0  0  0  0  0  0  0  0  0  0
   20.6710   -2.1730    0.0000 C   0  0  0  0  0  0  0  0  0  0  0  0
   21.9700   -2.9230    0.0000 C   0  0  0  0  0  0  0  0  0  0  0  0
   23.0840   -1.9190    0.0000 S   0  0  0  0  0  0  0  0  0  0  0  0
   22.4740   -0.5490    0.0000 C   0  0  0  0  0  0  0  0  0  0  0  0
   20.9830   -0.7050    0.0000 N   0  0  0  0  0  0  0  0  0  0  0  0
   23.2240    0.7500    0.0000 C   0  0  0  0  0  0  0  0  0  0  0  0
   24.7240    0.7500    0.0000 C   0  0  0  0  0  0  0  0  0  0  0  0
   22.4740    2.0500    0.0000 C   0  0  0  0  0  0  0  0  0  0  0  0
   18.2440   -0.4090    0.0000 C   0  0  0  0  0  0  0  0  0  0  0  0
   16.5600   -4.0030    0.0000 O   0  0  0  0  0  0  0  0  0  0  0  0
   13.9760   -3.7310    0.0000 C   0  0  0  0  0  0  0  0  0  0  0  0
   15.1900   -4.6130    0.0000 C   0  0  0  0  0  0  0  0  0  0  0  0
   12.6060   -4.3410    0.0000 C   0  0  0  0  0  0  0  0  0  0  0  0
   13.0760    0.1340    0.0000 O   0  0  0  0  0  0  0  0  0  0  0  0
  1  2  1  0  0  0  0
  1  9  1  0  0  0  0
  1 30  1  0  0  0  0
  2  3  1  0  0  0  0
  3  4  1  0  0  0  0
  3  8  2  0  0  0  0
  4  5  2  0  0  0  0
  5  6  1  0  0  0  0
  6  7  2  0  0  0  0
  7  8  1  0  0  0  0
  9 10  1  0  0  0  0
 10 11  1  0  0  0  0
 10 29  1  0  0  0  0
 11 12  1  0  0  0  0
 11 19  1  0  0  0  0
 12 13  1  0  0  0  0
 13 14  1  0  0  0  0
 13 18  2  0  0  0  0
 14 15  2  0  0  0  0
 15 16  1  0  0  0  0
 16 17  2  0  0  0  0
 17 18  1  0  0  0  0
 19 20  1  0  0  0  0
 20 21  1  0  0  0  0
 20 28  2  0  0  0  0
 21 22  1  0  0  0  0
 22 23  1  0  0  0  0
 23 24  2  0  0  0  0
 23 27  1  0  0  0  0
 24 25  1  0  0  0  0
 25 26  2  0  0  0  0
 26 27  1  0  0  0  0
 30 31  1  0  0  0  0
 31 32  1  0  0  0  0
 31 50  2  0  0  0  0
 32 33  1  0  0  0  0
 32 47  1  0  0  0  0
 33 34  1  0  0  0  0
 34 35  1  0  0  0  0
 34 46  2  0  0  0  0
 35 36  1  0  0  0  0
 35 45  1  0  0  0  0
 36 37  1  0  0  0  0
 37 38  2  0  0  0  0
 37 41  1  0  0  0  0
 38 39  1  0  0  0  0
 39 40  1  0  0  0  0
 40 41  2  0  0  0  0
 40 42  1  0  0  0  0
 42 43  1  0  0  0  0
 42 44  1  0  0  0  0
 47 48  1  0  0  0  0
 47 49  1  0  0  0  0
M  END
>  <n>
27

>  <IC50>
2.2

>  <Class>
1

>  <NAME>
RITONAVIR

>  <INCHI_KEY>
XUFQPHANEAPEMJ-UHFFFAOYSA-N

>  <Reference>
Interference

$$$$
ROFECOXIB
  MOE2013           2D

 22 24  0  0  0  0  0  0  0  0999 V2000
    4.6970   -5.0180    0.0000 C   0  0  0  0  0  0  0  0  0  0  0  0
    4.8540   -3.5270    0.0000 S   0  0  0  0  0  0  0  0  0  0  0  0
    6.2960   -3.9400    0.0000 O   0  0  0  0  0  0  0  0  0  0  0  0
    5.5120   -2.1780    0.0000 O   0  0  0  0  0  0  0  0  0  0  0  0
    3.6410   -2.6450    0.0000 C   0  0  0  0  0  0  0  0  0  0  0  0
    3.7970   -1.1530    0.0000 C   0  0  0  0  0  0  0  0  0  0  0  0
    2.5840   -0.2720    0.0000 C   0  0  0  0  0  0  0  0  0  0  0  0
    1.2140   -0.8820    0.0000 C   0  0  0  0  0  0  0  0  0  0  0  0
    1.0570   -2.3740    0.0000 C   0  0  0  0  0  0  0  0  0  0  0  0
    2.2700   -3.2550    0.0000 C   0  0  0  0  0  0  0  0  0  0  0  0
    0.0000    0.0000    0.0000 C   0  0  0  0  0  0  0  0  0  0  0  0
    0.0000    1.5000    0.0000 C   0  0  0  0  0  0  0  0  0  0  0  0
   -1.4270    1.9640    0.0000 C   0  0  0  0  0  0  0  0  0  0  0  0
   -1.8900    3.3900    0.0000 O   0  0  0  0  0  0  0  0  0  0  0  0
   -2.3080    0.7500    0.0000 O   0  0  0  0  0  0  0  0  0  0  0  0
   -1.4270   -0.4640    0.0000 C   0  0  0  0  0  0  0  0  0  0  0  0
    1.2140    2.3820    0.0000 C   0  0  0  0  0  0  0  0  0  0  0  0
    2.5840    1.7720    0.0000 C   0  0  0  0  0  0  0  0  0  0  0  0
    3.7970    2.6530    0.0000 C   0  0  0  0  0  0  0  0  0  0  0  0
    3.6410    4.1450    0.0000 C   0  0  0  0  0  0  0  0  0  0  0  0
    2.2700    4.7550    0.0000 C   0  0  0  0  0  0  0  0  0  0  0  0
    1.0570    3.8740    0.0000 C   0  0  0  0  0  0  0  0  0  0  0  0
  1  2  1  0  0  0  0
  2  3  2  0  0  0  0
  2  4  2  0  0  0  0
  2  5  1  0  0  0  0
  5  6  1  0  0  0  0
  5 10  2  0  0  0  0
  6  7  2  0  0  0  0
  7  8  1  0  0  0  0
  8  9  2  0  0  0  0
  8 11  1  0  0  0  0
  9 10  1  0  0  0  0
 11 12  2  0  0  0  0
 11 16  1  0  0  0  0
 12 13  1  0  0  0  0
 12 17  1  0  0  0  0
 13 14  2  0  0  0  0
 13 15  1  0  0  0  0
 15 16  1  0  0  0  0
 17 18  1  0  0  0  0
 17 22  2  0  0  0  0
 18 19  2  0  0  0  0
 19 20  1  0  0  0  0
 20 21  2  0  0  0  0
 21 22  1  0  0  0  0
M  END
>  <n>
535

>  <SMILES>
S(=O)(=O)(C)c1ccc(cc1)C=1COC(=O)C=1c1ccccc1

>  <IC50>
95.36

>  <Class>
0

>  <NAME>
ROFECOXIB

>  <INCHI_KEY>
RZJQGNCSTQAWON-UHFFFAOYSA-N

>  <Reference>
Mitigating the inhibition of human Bile Salt Export Pump by drugs_ opportunities provided by physicochemical property modulation,  in-silico modeling and structural modification_SI

$$$$
ROPIVACAINE
  MOE2013           2D

 20 21  0  0  1  0  0  0  0  0999 V2000
    2.5980   -7.5000    0.0000 C   0  0  0  0  0  0  0  0  0  0  0  0
    1.2990   -6.7500    0.0000 C   0  0  0  0  0  0  0  0  0  0  0  0
    1.2990   -5.2500    0.0000 C   0  0  0  0  0  0  0  0  0  0  0  0
    2.5980   -4.5000    0.0000 N   0  0  3  0  0  0  0  0  0  0  0  0
    3.8970   -5.2500    0.0000 C   0  0  0  0  0  0  0  0  0  0  0  0
    5.1960   -4.5000    0.0000 C   0  0  0  0  0  0  0  0  0  0  0  0
    5.1960   -3.0000    0.0000 C   0  0  0  0  0  0  0  0  0  0  0  0
    3.8970   -2.2500    0.0000 C   0  0  0  0  0  0  0  0  0  0  0  0
    2.5980   -3.0000    0.0000 C   0  0  3  0  0  0  0  0  0  0  0  0
    1.2990   -2.2500    0.0000 C   0  0  0  0  0  0  0  0  0  0  0  0
    0.0000   -3.0000    0.0000 O   0  0  0  0  0  0  0  0  0  0  0  0
    1.2990   -0.7500    0.0000 N   0  0  0  0  0  0  0  0  0  0  0  0
    0.0000    0.0000    0.0000 C   0  0  0  0  0  0  0  0  0  0  0  0
    0.0000    1.5000    0.0000 C   0  0  0  0  0  0  0  0  0  0  0  0
   -1.2990    2.2500    0.0000 C   0  0  0  0  0  0  0  0  0  0  0  0
   -2.5980    1.5000    0.0000 C   0  0  0  0  0  0  0  0  0  0  0  0
   -2.5980    0.0000    0.0000 C   0  0  0  0  0  0  0  0  0  0  0  0
   -1.2990   -0.7500    0.0000 C   0  0  0  0  0  0  0  0  0  0  0  0
   -1.2990   -2.2500    0.0000 C   0  0  0  0  0  0  0  0  0  0  0  0
    1.2990    2.2500    0.0000 C   0  0  0  0  0  0  0  0  0  0  0  0
  1  2  1  0  0  0  0
  2  3  1  0  0  0  0
  3  4  1  0  0  0  0
  4  5  1  0  0  0  0
  4  9  1  0  0  0  0
  5  6  1  0  0  0  0
  6  7  1  0  0  0  0
  7  8  1  0  0  0  0
  8  9  1  0  0  0  0
  9 10  1  0  0  0  0
 10 11  2  0  0  0  0
 10 12  1  0  0  0  0
 12 13  1  0  0  0  0
 13 14  1  0  0  0  0
 13 18  2  0  0  0  0
 14 15  2  0  0  0  0
 14 20  1  0  0  0  0
 15 16  1  0  0  0  0
 16 17  2  0  0  0  0
 17 18  1  0  0  0  0
 18 19  1  0  0  0  0
M  END
>  <n>
536

>  <SMILES>
O=C(Nc1c(cccc1C)C)[C@H]1N(CCCC1)CCC

>  <IC50>
646.4

>  <Class>
0

>  <NAME>
ROPIVACAINE

>  <INCHI_KEY>
ZKMNUMMKYBVTFN-HNNXBMFYSA-N

>  <Reference>
Mitigating the inhibition of human Bile Salt Export Pump by drugs_ opportunities provided by physicochemical property modulation,  in-silico modeling and structural modification_SI

$$$$
ROSIGLITAZONE
  MOE2013           2D

 25 27  0  0  1  0  0  0  0  0999 V2000
    4.2270   -9.4940    0.0000 C   0  0  0  0  0  0  0  0  0  0  0  0
    2.8570  -10.1040    0.0000 N   0  0  3  0  0  0  0  0  0  0  0  0
    1.6430   -9.2220    0.0000 C   0  0  0  0  0  0  0  0  0  0  0  0
    1.8000   -7.7300    0.0000 C   0  0  0  0  0  0  0  0  0  0  0  0
    0.5860   -6.8490    0.0000 O   0  0  0  0  0  0  0  0  0  0  0  0
    0.7430   -5.3570    0.0000 C   0  0  0  0  0  0  0  0  0  0  0  0
    2.1140   -4.7470    0.0000 C   0  0  0  0  0  0  0  0  0  0  0  0
    2.2700   -3.2550    0.0000 C   0  0  0  0  0  0  0  0  0  0  0  0
    1.0570   -2.3740    0.0000 C   0  0  0  0  0  0  0  0  0  0  0  0
   -0.3140   -2.9840    0.0000 C   0  0  0  0  0  0  0  0  0  0  0  0
   -0.4700   -4.4750    0.0000 C   0  0  0  0  0  0  0  0  0  0  0  0
    1.2140   -0.8820    0.0000 C   0  0  0  0  0  0  0  0  0  0  0  0
    0.0000    0.0000    0.0000 C   0  0  3  0  0  0  0  0  0  0  0  0
    0.0000    1.5000    0.0000 C   0  0  0  0  0  0  0  0  0  0  0  0
    1.2140    2.3820    0.0000 O   0  0  0  0  0  0  0  0  0  0  0  0
   -1.4270    1.9640    0.0000 N   0  0  0  0  0  0  0  0  0  0  0  0
   -2.3080    0.7500    0.0000 C   0  0  0  0  0  0  0  0  0  0  0  0
   -3.8080    0.7500    0.0000 O   0  0  0  0  0  0  0  0  0  0  0  0
   -1.4270   -0.4640    0.0000 S   0  0  0  0  0  0  0  0  0  0  0  0
    2.7000  -11.5960    0.0000 C   0  0  0  0  0  0  0  0  0  0  0  0
    1.3300  -12.2060    0.0000 C   0  0  0  0  0  0  0  0  0  0  0  0
    1.1730  -13.6980    0.0000 C   0  0  0  0  0  0  0  0  0  0  0  0
    2.3860  -14.5790    0.0000 C   0  0  0  0  0  0  0  0  0  0  0  0
    3.7570  -13.9690    0.0000 C   0  0  0  0  0  0  0  0  0  0  0  0
    3.9130  -12.4770    0.0000 N   0  0  0  0  0  0  0  0  0  0  0  0
  1  2  1  0  0  0  0
  2  3  1  0  0  0  0
  2 20  1  0  0  0  0
  3  4  1  0  0  0  0
  4  5  1  0  0  0  0
  5  6  1  0  0  0  0
  6  7  1  0  0  0  0
  6 11  2  0  0  0  0
  7  8  2  0  0  0  0
  8  9  1  0  0  0  0
  9 10  2  0  0  0  0
  9 12  1  0  0  0  0
 10 11  1  0  0  0  0
 12 13  1  0  0  0  0
 13 14  1  0  0  0  0
 13 19  1  0  0  0  0
 14 15  2  0  0  0  0
 14 16  1  0  0  0  0
 16 17  1  0  0  0  0
 17 18  2  0  0  0  0
 17 19  1  0  0  0  0
 20 21  1  0  0  0  0
 20 25  2  0  0  0  0
 21 22  2  0  0  0  0
 22 23  1  0  0  0  0
 23 24  2  0  0  0  0
 24 25  1  0  0  0  0
M  END
>  <n>
537

>  <SMILES>
S1C(Cc2ccc(OCCN(C)c3ncccc3)cc2)C(=O)NC1=O

>  <IC50>
6.362

>  <Class>
1

>  <NAME>
ROSIGLITAZONE

>  <INCHI_KEY>
YASAKCUCGLMORW-UHFFFAOYSA-N

>  <Reference>
Mitigating, Dawson, Interference

$$$$
SALICIN
  MOE2013           2D

 20 21  0  0  1  0  0  0  0  0999 V2000
    0.0000    0.0000    0.0000 C   0  0  0  0  0  0  0  0  0  0  0  0
    0.0000    1.5000    0.0000 C   0  0  0  0  0  0  0  0  0  0  0  0
   -1.2990    2.2500    0.0000 C   0  0  0  0  0  0  0  0  0  0  0  0
   -2.5980    1.5000    0.0000 C   0  0  0  0  0  0  0  0  0  0  0  0
   -2.5980    0.0000    0.0000 C   0  0  0  0  0  0  0  0  0  0  0  0
   -1.2990   -0.7500    0.0000 C   0  0  0  0  0  0  0  0  0  0  0  0
   -3.8970   -0.7500    0.0000 C   0  0  0  0  0  0  0  0  0  0  0  0
   -3.8970   -2.2500    0.0000 O   0  0  0  0  0  0  0  0  0  0  0  0
   -3.8970    2.2500    0.0000 O   0  0  0  0  0  0  0  0  0  0  0  0
   -3.8970    3.7500    0.0000 C   0  0  3  0  0  0  0  0  0  0  0  0
   -2.5980    4.5000    0.0000 C   0  0  3  0  0  0  0  0  0  0  0  0
   -2.5980    6.0000    0.0000 C   0  0  3  0  0  0  0  0  0  0  0  0
   -3.8970    6.7500    0.0000 C   0  0  3  0  0  0  0  0  0  0  0  0
   -5.1960    6.0000    0.0000 C   0  0  3  0  0  0  0  0  0  0  0  0
   -5.1960    4.5000    0.0000 O   0  0  0  0  0  0  0  0  0  0  0  0
   -6.4950    6.7500    0.0000 C   0  0  0  0  0  0  0  0  0  0  0  0
   -6.4950    8.2500    0.0000 O   0  0  0  0  0  0  0  0  0  0  0  0
   -3.8970    8.2500    0.0000 O   0  0  0  0  0  0  0  0  0  0  0  0
   -1.2990    6.7500    0.0000 O   0  0  0  0  0  0  0  0  0  0  0  0
   -1.2990    3.7500    0.0000 O   0  0  0  0  0  0  0  0  0  0  0  0
  1  2  1  0  0  0  0
  1  6  2  0  0  0  0
  2  3  2  0  0  0  0
  3  4  1  0  0  0  0
  4  5  2  0  0  0  0
  4  9  1  0  0  0  0
  5  6  1  0  0  0  0
  5  7  1  0  0  0  0
  7  8  1  0  0  0  0
  9 10  1  0  0  0  0
 10 11  1  0  0  0  0
 10 15  1  0  0  0  0
 11 12  1  0  0  0  0
 11 20  1  0  0  0  0
 12 13  1  0  0  0  0
 12 19  1  0  0  0  0
 13 14  1  0  0  0  0
 13 18  1  0  0  0  0
 14 15  1  0  0  0  0
 14 16  1  0  0  0  0
 16 17  1  0  0  0  0
M  END
>  <n>
539

>  <SMILES>
O1[C@H](CO)[C@@H](O)[C@H](O)[C@@H](O)[C@@H]1Oc1ccccc1CO

>  <IC50>
>1000

>  <Class>
0

>  <NAME>
SALICIN

>  <INCHI_KEY>
NGFMICBWJRZIBI-UJPOAAIJSA-N

>  <Reference>
Mitigating the inhibition of human Bile Salt Export Pump by drugs_ opportunities provided by physicochemical property modulation,  in-silico modeling and structural modification_SI

$$$$
SALSALATE
  MOE2013           2D

 19 20  0  0  0  0  0  0  0  0999 V2000
    5.1960   -3.0000    0.0000 C   0  0  0  0  0  0  0  0  0  0  0  0
    6.4950   -2.2500    0.0000 C   0  0  0  0  0  0  0  0  0  0  0  0
    6.4950   -0.7500    0.0000 C   0  0  0  0  0  0  0  0  0  0  0  0
    5.1960    0.0000    0.0000 C   0  0  0  0  0  0  0  0  0  0  0  0
    3.8970   -0.7500    0.0000 C   0  0  0  0  0  0  0  0  0  0  0  0
    3.8970   -2.2500    0.0000 C   0  0  0  0  0  0  0  0  0  0  0  0
    2.5980    0.0000    0.0000 C   0  0  0  0  0  0  0  0  0  0  0  0
    2.5980    1.5000    0.0000 O   0  0  0  0  0  0  0  0  0  0  0  0
    1.2990   -0.7500    0.0000 O   0  0  0  0  0  0  0  0  0  0  0  0
    0.0000    0.0000    0.0000 C   0  0  0  0  0  0  0  0  0  0  0  0
    0.0000    1.5000    0.0000 C   0  0  0  0  0  0  0  0  0  0  0  0
   -1.2990    2.2500    0.0000 C   0  0  0  0  0  0  0  0  0  0  0  0
   -2.5980    1.5000    0.0000 C   0  0  0  0  0  0  0  0  0  0  0  0
   -2.5980    0.0000    0.0000 C   0  0  0  0  0  0  0  0  0  0  0  0
   -1.2990   -0.7500    0.0000 C   0  0  0  0  0  0  0  0  0  0  0  0
   -1.2990   -2.2500    0.0000 C   0  0  0  0  0  0  0  0  0  0  0  0
   -2.5980   -3.0000    0.0000 O   0  0  0  0  0  0  0  0  0  0  0  0
    0.0000   -3.0000    0.0000 O   0  0  0  0  0  0  0  0  0  0  0  0
    5.1960    1.5000    0.0000 O   0  0  0  0  0  0  0  0  0  0  0  0
  1  2  1  0  0  0  0
  1  6  2  0  0  0  0
  2  3  2  0  0  0  0
  3  4  1  0  0  0  0
  4  5  2  0  0  0  0
  4 19  1  0  0  0  0
  5  6  1  0  0  0  0
  5  7  1  0  0  0  0
  7  8  2  0  0  0  0
  7  9  1  0  0  0  0
  9 10  1  0  0  0  0
 10 11  1  0  0  0  0
 10 15  2  0  0  0  0
 11 12  2  0  0  0  0
 12 13  1  0  0  0  0
 13 14  2  0  0  0  0
 14 15  1  0  0  0  0
 15 16  1  0  0  0  0
 16 17  2  0  0  0  0
 16 18  1  0  0  0  0
M  END
>  <n>
541

>  <SMILES>
O(C(=O)c1ccccc1O)c1ccccc1C(O)=O

>  <IC50>
>1000

>  <Class>
0

>  <NAME>
SALSALATE

>  <INCHI_KEY>
WVYADZUPLLSGPU-UHFFFAOYSA-N

>  <Reference>
Mitigating the inhibition of human Bile Salt Export Pump by drugs_ opportunities provided by physicochemical property modulation,  in-silico modeling and structural modification_SI

$$$$
Saquinavir
  MOE2013           2D

 49 53  0  0  1  0  0  0  0  0999 V2000
    0.0000    0.0000    0.0000 C   0  0  3  0  0  0  0  0  0  0  0  0
    0.0000    1.5000    0.0000 C   0  0  3  0  0  0  0  0  0  0  0  0
    1.2990    2.2500    0.0000 C   0  0  0  0  0  0  0  0  0  0  0  0
    2.5980    1.5000    0.0000 N   0  0  3  0  0  0  0  0  0  0  0  0
    2.5980    0.0000    0.0000 C   0  0  3  0  0  0  0  0  0  0  0  0
    1.2990   -0.7500    0.0000 C   0  0  0  0  0  0  0  0  0  0  0  0
    3.8970   -0.7500    0.0000 C   0  0  0  0  0  0  0  0  0  0  0  0
    3.8970   -2.2500    0.0000 O   0  0  0  0  0  0  0  0  0  0  0  0
    5.1960    0.0000    0.0000 N   0  0  0  0  0  0  0  0  0  0  0  0
    6.4950   -0.7500    0.0000 C   0  0  0  0  0  0  0  0  0  0  0  0
    7.7940    0.0000    0.0000 C   0  0  0  0  0  0  0  0  0  0  0  0
    5.5310   -1.8990    0.0000 C   0  0  0  0  0  0  0  0  0  0  0  0
    7.4590   -1.8990    0.0000 C   0  0  0  0  0  0  0  0  0  0  0  0
    3.8970    2.2500    0.0000 C   0  0  0  0  0  0  0  0  0  0  0  0
    3.8970    3.7500    0.0000 C   0  0  3  0  0  0  0  0  0  0  0  0
    2.5980    4.5000    0.0000 O   0  0  0  0  0  0  0  0  0  0  0  0
    5.1960    4.5000    0.0000 C   0  0  3  0  0  0  0  0  0  0  0  0
    5.1960    6.0000    0.0000 N   0  0  0  0  0  0  0  0  0  0  0  0
    6.4950    6.7500    0.0000 C   0  0  0  0  0  0  0  0  0  0  0  0
    7.7940    6.0000    0.0000 O   0  0  0  0  0  0  0  0  0  0  0  0
    6.4950    8.2500    0.0000 C   0  0  3  0  0  0  0  0  0  0  0  0
    7.7940    9.0000    0.0000 N   0  0  0  0  0  0  0  0  0  0  0  0
    7.7940   10.5000    0.0000 C   0  0  0  0  0  0  0  0  0  0  0  0
    6.4950   11.2500    0.0000 O   0  0  0  0  0  0  0  0  0  0  0  0
    9.0930   11.2500    0.0000 C   0  0  0  0  0  0  0  0  0  0  0  0
    9.0930   12.7500    0.0000 N   0  0  0  0  0  0  0  0  0  0  0  0
   10.3920   13.5000    0.0000 C   0  0  0  0  0  0  0  0  0  0  0  0
   11.6910   12.7500    0.0000 C   0  0  0  0  0  0  0  0  0  0  0  0
   11.6910   11.2500    0.0000 C   0  0  0  0  0  0  0  0  0  0  0  0
   10.3920   10.5000    0.0000 C   0  0  0  0  0  0  0  0  0  0  0  0
   12.9900   13.5000    0.0000 C   0  0  0  0  0  0  0  0  0  0  0  0
   12.9900   15.0000    0.0000 C   0  0  0  0  0  0  0  0  0  0  0  0
   11.6910   15.7500    0.0000 C   0  0  0  0  0  0  0  0  0  0  0  0
   10.3920   15.0000    0.0000 C   0  0  0  0  0  0  0  0  0  0  0  0
    5.1960    9.0000    0.0000 C   0  0  0  0  0  0  0  0  0  0  0  0
    5.1960   10.5000    0.0000 C   0  0  0  0  0  0  0  0  0  0  0  0
    3.8970   11.2500    0.0000 O   0  0  0  0  0  0  0  0  0  0  0  0
    6.4950   11.2500    0.0000 N   0  0  0  0  0  0  0  0  0  0  0  0
    6.4950    3.7500    0.0000 C   0  0  0  0  0  0  0  0  0  0  0  0
    6.4950    2.2500    0.0000 C   0  0  0  0  0  0  0  0  0  0  0  0
    5.1960    1.5000    0.0000 C   0  0  0  0  0  0  0  0  0  0  0  0
    5.1960    0.0000    0.0000 C   0  0  0  0  0  0  0  0  0  0  0  0
    6.4950   -0.7500    0.0000 C   0  0  0  0  0  0  0  0  0  0  0  0
    7.7940    0.0000    0.0000 C   0  0  0  0  0  0  0  0  0  0  0  0
    7.7940    1.5000    0.0000 C   0  0  0  0  0  0  0  0  0  0  0  0
   -1.2990    2.2500    0.0000 C   0  0  0  0  0  0  0  0  0  0  0  0
   -2.5980    1.5000    0.0000 C   0  0  0  0  0  0  0  0  0  0  0  0
   -2.5980    0.0000    0.0000 C   0  0  0  0  0  0  0  0  0  0  0  0
   -1.2990   -0.7500    0.0000 C   0  0  0  0  0  0  0  0  0  0  0  0
  1  2  1  0  0  0  0
  1  6  1  0  0  0  0
  1 49  1  0  0  0  0
  2  3  1  0  0  0  0
  2 46  1  0  0  0  0
  3  4  1  0  0  0  0
  4  5  1  0  0  0  0
  4 14  1  0  0  0  0
  5  6  1  0  0  0  0
  5  7  1  0  0  0  0
  7  8  2  0  0  0  0
  7  9  1  0  0  0  0
  9 10  1  0  0  0  0
 10 11  1  0  0  0  0
 10 12  1  0  0  0  0
 10 13  1  0  0  0  0
 14 15  1  0  0  0  0
 15 16  1  0  0  0  0
 15 17  1  0  0  0  0
 17 18  1  0  0  0  0
 17 39  1  0  0  0  0
 18 19  1  0  0  0  0
 19 20  2  0  0  0  0
 19 21  1  0  0  0  0
 21 22  1  0  0  0  0
 21 35  1  0  0  0  0
 22 23  1  0  0  0  0
 23 24  2  0  0  0  0
 23 25  1  0  0  0  0
 25 26  1  0  0  0  0
 25 30  2  0  0  0  0
 26 27  2  0  0  0  0
 27 28  1  0  0  0  0
 27 34  1  0  0  0  0
 28 29  2  0  0  0  0
 28 31  1  0  0  0  0
 29 30  1  0  0  0  0
 31 32  2  0  0  0  0
 32 33  1  0  0  0  0
 33 34  2  0  0  0  0
 35 36  1  0  0  0  0
 36 37  2  0  0  0  0
 36 38  1  0  0  0  0
 39 40  1  0  0  0  0
 40 41  1  0  0  0  0
 40 45  2  0  0  0  0
 41 42  2  0  0  0  0
 42 43  1  0  0  0  0
 43 44  2  0  0  0  0
 44 45  1  0  0  0  0
 46 47  1  0  0  0  0
 47 48  1  0  0  0  0
 48 49  1  0  0  0  0
M  END
>  <n>
23

>  <IC50>
4.9

>  <Class>
1

>  <NAME>
SAQUINAVIR

>  <INCHI_KEY>
QWAXKHKRTORLEM-UGJKXSETSA-N

>  <Reference>
Interference

$$$$
SCOPOLAMINE
  MOE2013           2D

 22 25  0  0  1  0  0  0  0  0999 V2000
    1.2140   -0.8820    0.0000 C   0  0  0  0  0  0  0  0  0  0  0  0
    0.0000    0.0000    0.0000 N   0  0  0  0  0  0  0  0  0  0  0  0
    0.0000    1.5000    0.0000 C   0  0  3  0  0  0  0  0  0  0  0  0
    1.9370    0.3660    0.0000 C   0  0  0  0  0  0  0  0  0  0  0  0
    1.9520   -1.4180    0.0000 C   0  0  0  0  0  0  0  0  0  0  0  0
    0.2510   -1.9550    0.0000 C   0  0  0  0  0  0  0  0  0  0  0  0
   -1.4270   -0.4640    0.0000 C   0  0  3  0  0  0  0  0  0  0  0  0
   -2.3080    0.7500    0.0000 C   0  0  3  0  0  0  0  0  0  0  0  0
   -1.4270    1.9640    0.0000 C   0  0  3  0  0  0  0  0  0  0  0  0
   -2.9180    2.1200    0.0000 O   0  0  0  0  0  0  0  0  0  0  0  0
    3.1650   -2.3000    0.0000 O   0  0  0  0  0  0  0  0  0  0  0  0
    4.5350   -1.6890    0.0000 C   0  0  0  0  0  0  0  0  0  0  0  0
    4.6920   -0.1980    0.0000 O   0  0  0  0  0  0  0  0  0  0  0  0
    5.7490   -2.5710    0.0000 C   0  0  3  0  0  0  0  0  0  0  0  0
    7.1190   -1.9610    0.0000 C   0  0  0  0  0  0  0  0  0  0  0  0
    8.3330   -2.8430    0.0000 O   0  0  0  0  0  0  0  0  0  0  0  0
    5.5920   -4.0630    0.0000 C   0  0  0  0  0  0  0  0  0  0  0  0
    4.2220   -4.6730    0.0000 C   0  0  0  0  0  0  0  0  0  0  0  0
    4.0650   -6.1650    0.0000 C   0  0  0  0  0  0  0  0  0  0  0  0
    5.2780   -7.0460    0.0000 C   0  0  0  0  0  0  0  0  0  0  0  0
    6.6490   -6.4360    0.0000 C   0  0  0  0  0  0  0  0  0  0  0  0
    6.8060   -4.9450    0.0000 C   0  0  0  0  0  0  0  0  0  0  0  0
  1  2  1  0  0  0  0
  2  3  1  0  0  0  0
  2  7  1  0  0  0  0
  3  4  1  0  0  0  0
  3  9  1  0  0  0  0
  4  5  1  0  0  0  0
  5  6  1  0  0  0  0
  5 11  1  0  0  0  0
  6  7  1  0  0  0  0
  7  8  1  0  0  0  0
  8  9  1  0  0  0  0
  8 10  1  0  0  0  0
  9 10  1  0  0  0  0
 11 12  1  0  0  0  0
 12 13  2  0  0  0  0
 12 14  1  0  0  0  0
 14 15  1  0  0  0  0
 14 17  1  0  0  0  0
 15 16  1  0  0  0  0
 17 18  1  0  0  0  0
 17 22  2  0  0  0  0
 18 19  2  0  0  0  0
 19 20  1  0  0  0  0
 20 21  2  0  0  0  0
 21 22  1  0  0  0  0
M  END
>  <n>
542

>  <SMILES>
O1C2C3N(C(CC(OC(=O)C(CO)c4ccccc4)C3)C12)C

>  <IC50>
>1000

>  <Class>
0

>  <NAME>
SCOPOLAMINE

>  <INCHI_KEY>
STECJAGHUSJQJN-UHFFFAOYSA-N

>  <Reference>
Mitigating the inhibition of human Bile Salt Export Pump by drugs_ opportunities provided by physicochemical property modulation,  in-silico modeling and structural modification_SI

$$$$
SEMATILIDE
  MOE2013           2D

 21 21  0  0  0  0  0  0  0  0999 V2000
    5.1960   -7.5000    0.0000 C   0  0  0  0  0  0  0  0  0  0  0  0
    3.8970   -6.7500    0.0000 C   0  0  0  0  0  0  0  0  0  0  0  0
    3.8970   -5.2500    0.0000 N   0  0  0  0  0  0  0  0  0  0  0  0
    5.1960   -4.5000    0.0000 C   0  0  0  0  0  0  0  0  0  0  0  0
    6.4950   -5.2500    0.0000 C   0  0  0  0  0  0  0  0  0  0  0  0
    2.5980   -4.5000    0.0000 C   0  0  0  0  0  0  0  0  0  0  0  0
    2.5980   -3.0000    0.0000 C   0  0  0  0  0  0  0  0  0  0  0  0
    1.2990   -2.2500    0.0000 N   0  0  0  0  0  0  0  0  0  0  0  0
    1.2990   -0.7500    0.0000 C   0  0  0  0  0  0  0  0  0  0  0  0
    2.5980    0.0000    0.0000 O   0  0  0  0  0  0  0  0  0  0  0  0
    0.0000    0.0000    0.0000 C   0  0  0  0  0  0  0  0  0  0  0  0
    0.0000    1.5000    0.0000 C   0  0  0  0  0  0  0  0  0  0  0  0
   -1.2990    2.2500    0.0000 C   0  0  0  0  0  0  0  0  0  0  0  0
   -2.5980    1.5000    0.0000 C   0  0  0  0  0  0  0  0  0  0  0  0
   -2.5980    0.0000    0.0000 C   0  0  0  0  0  0  0  0  0  0  0  0
   -1.2990   -0.7500    0.0000 C   0  0  0  0  0  0  0  0  0  0  0  0
   -3.8970    2.2500    0.0000 N   0  0  0  0  0  0  0  0  0  0  0  0
   -3.8970    3.7500    0.0000 S   0  0  0  0  0  0  0  0  0  0  0  0
   -5.1960    4.5000    0.0000 O   0  0  0  0  0  0  0  0  0  0  0  0
   -2.4200    3.4900    0.0000 O   0  0  0  0  0  0  0  0  0  0  0  0
   -3.3840    5.1600    0.0000 C   0  0  0  0  0  0  0  0  0  0  0  0
  1  2  1  0  0  0  0
  2  3  1  0  0  0  0
  3  4  1  0  0  0  0
  3  6  1  0  0  0  0
  4  5  1  0  0  0  0
  6  7  1  0  0  0  0
  7  8  1  0  0  0  0
  8  9  1  0  0  0  0
  9 10  2  0  0  0  0
  9 11  1  0  0  0  0
 11 12  1  0  0  0  0
 11 16  2  0  0  0  0
 12 13  2  0  0  0  0
 13 14  1  0  0  0  0
 14 15  2  0  0  0  0
 14 17  1  0  0  0  0
 15 16  1  0  0  0  0
 17 18  1  0  0  0  0
 18 19  2  0  0  0  0
 18 20  2  0  0  0  0
 18 21  1  0  0  0  0
M  END
>  <n>
543

>  <SMILES>
S(=O)(=O)(Nc1ccc(cc1)C(=O)NCCN(CC)CC)C

>  <IC50>
>1000

>  <Class>
0

>  <NAME>
SEMATILIDE

>  <INCHI_KEY>
KHYPYQZQJSBPIX-UHFFFAOYSA-N

>  <Reference>
Mitigating the inhibition of human Bile Salt Export Pump by drugs_ opportunities provided by physicochemical property modulation,  in-silico modeling and structural modification_SI

$$$$
SIBENADET
  MOE2013           2D

 31 33  0  0  0  0  0  0  0  0999 V2000
    9.0930   20.2500    0.0000 C   0  0  0  0  0  0  0  0  0  0  0  0
    7.7940   19.5000    0.0000 C   0  0  0  0  0  0  0  0  0  0  0  0
    7.7940   18.0000    0.0000 C   0  0  0  0  0  0  0  0  0  0  0  0
    9.0930   17.2500    0.0000 C   0  0  0  0  0  0  0  0  0  0  0  0
   10.3920   18.0000    0.0000 C   0  0  0  0  0  0  0  0  0  0  0  0
   10.3920   19.5000    0.0000 C   0  0  0  0  0  0  0  0  0  0  0  0
    9.0930   15.7500    0.0000 C   0  0  0  0  0  0  0  0  0  0  0  0
    7.7940   15.0000    0.0000 C   0  0  0  0  0  0  0  0  0  0  0  0
    7.7940   13.5000    0.0000 O   0  0  0  0  0  0  0  0  0  0  0  0
    6.4950   12.7500    0.0000 C   0  0  0  0  0  0  0  0  0  0  0  0
    6.4950   11.2500    0.0000 C   0  0  0  0  0  0  0  0  0  0  0  0
    5.1960   10.5000    0.0000 C   0  0  0  0  0  0  0  0  0  0  0  0
    5.1960    9.0000    0.0000 S   0  0  0  0  0  0  0  0  0  0  0  0
    5.7090    7.5900    0.0000 O   0  0  0  0  0  0  0  0  0  0  0  0
    6.6730    9.2600    0.0000 O   0  0  0  0  0  0  0  0  0  0  0  0
    3.8970    8.2500    0.0000 C   0  0  0  0  0  0  0  0  0  0  0  0
    3.8970    6.7500    0.0000 C   0  0  0  0  0  0  0  0  0  0  0  0
    2.5980    6.0000    0.0000 N   0  0  0  0  0  0  0  0  0  0  0  0
    2.5980    4.5000    0.0000 C   0  0  0  0  0  0  0  0  0  0  0  0
    1.2990    3.7500    0.0000 C   0  0  0  0  0  0  0  0  0  0  0  0
    1.2990    2.2500    0.0000 C   0  0  0  0  0  0  0  0  0  0  0  0
    2.5980    1.5000    0.0000 C   0  0  0  0  0  0  0  0  0  0  0  0
    2.5980    0.0000    0.0000 C   0  0  0  0  0  0  0  0  0  0  0  0
    1.2990   -0.7500    0.0000 C   0  0  0  0  0  0  0  0  0  0  0  0
    0.0000    0.0000    0.0000 C   0  0  0  0  0  0  0  0  0  0  0  0
    0.0000    1.5000    0.0000 C   0  0  0  0  0  0  0  0  0  0  0  0
   -1.4270    1.9640    0.0000 S   0  0  0  0  0  0  0  0  0  0  0  0
   -2.3080    0.7500    0.0000 C   0  0  0  0  0  0  0  0  0  0  0  0
   -3.8080    0.7500    0.0000 O   0  0  0  0  0  0  0  0  0  0  0  0
   -1.4270   -0.4640    0.0000 N   0  0  0  0  0  0  0  0  0  0  0  0
    1.2990   -2.2500    0.0000 O   0  0  0  0  0  0  0  0  0  0  0  0
  1  2  1  0  0  0  0
  1  6  2  0  0  0  0
  2  3  2  0  0  0  0
  3  4  1  0  0  0  0
  4  5  2  0  0  0  0
  4  7  1  0  0  0  0
  5  6  1  0  0  0  0
  7  8  1  0  0  0  0
  8  9  1  0  0  0  0
  9 10  1  0  0  0  0
 10 11  1  0  0  0  0
 11 12  1  0  0  0  0
 12 13  1  0  0  0  0
 13 14  2  0  0  0  0
 13 15  2  0  0  0  0
 13 16  1  0  0  0  0
 16 17  1  0  0  0  0
 17 18  1  0  0  0  0
 18 19  1  0  0  0  0
 19 20  1  0  0  0  0
 20 21  1  0  0  0  0
 21 22  1  0  0  0  0
 21 26  2  0  0  0  0
 22 23  2  0  0  0  0
 23 24  1  0  0  0  0
 24 25  2  0  0  0  0
 24 31  1  0  0  0  0
 25 26  1  0  0  0  0
 25 30  1  0  0  0  0
 26 27  1  0  0  0  0
 27 28  1  0  0  0  0
 28 29  2  0  0  0  0
 28 30  1  0  0  0  0
M  END
>  <n>
546

>  <SMILES>
S1c2c(NC1=O)c(O)ccc2CCNCCS(=O)(=O)CCCOCCc1ccccc1

>  <IC50>
<10

>  <Class>
1

>  <NAME>
SIBENADET

>  <INCHI_KEY>
DBCKRBGYGMVSTI-UHFFFAOYSA-N

>  <Reference>
Mitigating the inhibition of human Bile Salt Export Pump by drugs_ opportunities provided by physicochemical property modulation,  in-silico modeling and structural modification_SI

$$$$
SIROLIMUS
  MOE2013           2D

 65 68  0  0  1  0  0  0  0  0999 V2000
    1.3610   -4.8810    0.0000 C   0  0  0  0  0  0  0  0  0  0  0  0
    1.0830   -3.4070    0.0000 C   0  0  3  0  0  0  0  0  0  0  0  0
    2.4180   -2.3880    0.0000 C   0  0  0  0  0  0  0  0  0  0  0  0
    1.9710   -0.7690    0.0000 C   0  0  0  0  0  0  0  0  0  0  0  0
    0.0000    0.0000    0.0000 C   0  0  3  0  0  0  0  0  0  0  0  0
    0.0000    1.5000    0.0000 C   0  0  0  0  0  0  0  0  0  0  0  0
   -0.3220    2.9650    0.0000 C   0  0  3  0  0  0  0  0  0  0  0  0
   -0.9520    4.3260    0.0000 C   0  0  0  0  0  0  0  0  0  0  0  0
   -1.8600    5.5200    0.0000 C   0  0  0  0  0  0  0  0  0  0  0  0
   -3.0030    6.4920    0.0000 C   0  0  0  0  0  0  0  0  0  0  0  0
   -4.3290    7.1940    0.0000 C   0  0  0  0  0  0  0  0  0  0  0  0
   -5.7740    7.5950    0.0000 C   0  0  0  0  0  0  0  0  0  0  0  0
   -7.2720    7.6770    0.0000 C   0  0  0  0  0  0  0  0  0  0  0  0
   -8.7520    7.4340    0.0000 C   0  0  3  0  0  0  0  0  0  0  0  0
  -10.1450    6.8790    0.0000 C   0  0  0  0  0  0  0  0  0  0  0  0
  -11.3870    6.0370    0.0000 C   0  0  3  0  0  0  0  0  0  0  0  0
  -12.4180    4.9480    0.0000 C   0  0  0  0  0  0  0  0  0  0  0  0
  -13.6130    5.8560    0.0000 O   0  0  0  0  0  0  0  0  0  0  0  0
  -13.1920    3.6630    0.0000 C   0  0  3  0  0  0  0  0  0  0  0  0
  -13.6710    2.2410    0.0000 C   0  0  3  0  0  0  0  0  0  0  0  0
  -13.8330    0.7500    0.0000 C   0  0  0  0  0  0  0  0  0  0  0  0
  -13.6710   -0.7410    0.0000 C   0  0  0  0  0  0  0  0  0  0  0  0
  -13.1920   -2.1630    0.0000 C   0  0  3  0  0  0  0  0  0  0  0  0
  -12.4180   -3.4480    0.0000 C   0  0  0  0  0  0  0  0  0  0  0  0
  -13.6130   -4.3560    0.0000 O   0  0  0  0  0  0  0  0  0  0  0  0
  -11.3870   -4.5370    0.0000 C   0  0  0  0  0  0  0  0  0  0  0  0
  -10.1450   -5.3790    0.0000 C   0  0  3  0  0  0  0  0  0  0  0  0
   -8.7520   -5.9340    0.0000 O   0  0  0  0  0  0  0  0  0  0  0  0
   -7.2720   -6.1770    0.0000 C   0  0  0  0  0  0  0  0  0  0  0  0
   -7.3530   -7.6740    0.0000 O   0  0  0  0  0  0  0  0  0  0  0  0
   -5.7740   -6.0950    0.0000 C   0  0  3  0  0  0  0  0  0  0  0  0
   -6.1490   -7.5480    0.0000 C   0  0  0  0  0  0  0  0  0  0  0  0
   -5.0790   -8.5990    0.0000 C   0  0  0  0  0  0  0  0  0  0  0  0
   -3.6340   -8.1980    0.0000 C   0  0  0  0  0  0  0  0  0  0  0  0
   -3.2580   -6.7450    0.0000 C   0  0  0  0  0  0  0  0  0  0  0  0
   -4.3290   -5.6940    0.0000 N   0  0  0  0  0  0  0  0  0  0  0  0
   -3.0030   -4.9920    0.0000 C   0  0  0  0  0  0  0  0  0  0  0  0
   -2.1620   -6.2330    0.0000 O   0  0  0  0  0  0  0  0  0  0  0  0
   -1.8600   -4.0200    0.0000 C   0  0  0  0  0  0  0  0  0  0  0  0
   -0.7710   -5.0520    0.0000 O   0  0  0  0  0  0  0  0  0  0  0  0
   -0.9520   -2.8260    0.0000 C   0  0  2  0  0  0  0  0  0  0  0  0
   -0.3220   -1.4650    0.0000 O   0  0  0  0  0  0  0  0  0  0  0  0
   -0.4780   -4.2500    0.0000 O   0  0  0  0  0  0  0  0  0  0  0  0
  -10.8480   -6.7040    0.0000 C   0  0  3  0  0  0  0  0  0  0  0  0
  -10.0520   -7.9750    0.0000 C   0  0  0  0  0  0  0  0  0  0  0  0
  -12.3470   -6.7580    0.0000 C   0  0  0  0  0  0  0  0  0  0  0  0
  -13.0500   -8.0830    0.0000 C   0  0  3  0  0  0  0  0  0  0  0  0
  -14.5490   -8.1380    0.0000 C   0  0  0  0  0  0  0  0  0  0  0  0
  -15.2510   -9.4630    0.0000 C   0  0  0  0  0  0  0  0  0  0  0  0
  -14.4550  -10.7340    0.0000 C   0  0  3  0  0  0  0  0  0  0  0  0
  -12.9560  -10.6800    0.0000 C   0  0  3  0  0  0  0  0  0  0  0  0
  -12.2530   -9.3550    0.0000 C   0  0  0  0  0  0  0  0  0  0  0  0
  -12.1590  -11.9510    0.0000 O   0  0  0  0  0  0  0  0  0  0  0  0
  -12.8620  -13.2760    0.0000 C   0  0  0  0  0  0  0  0  0  0  0  0
  -15.1580  -12.0590    0.0000 O   0  0  0  0  0  0  0  0  0  0  0  0
  -14.5530   -2.7920    0.0000 C   0  0  0  0  0  0  0  0  0  0  0  0
  -15.3330    0.7500    0.0000 C   0  0  0  0  0  0  0  0  0  0  0  0
  -15.1360    2.5640    0.0000 O   0  0  0  0  0  0  0  0  0  0  0  0
  -14.5530    4.2920    0.0000 O   0  0  0  0  0  0  0  0  0  0  0  0
  -14.6880    5.7860    0.0000 C   0  0  0  0  0  0  0  0  0  0  0  0
  -12.3580    7.1800    0.0000 C   0  0  0  0  0  0  0  0  0  0  0  0
   -9.1530    8.8790    0.0000 C   0  0  0  0  0  0  0  0  0  0  0  0
    0.3330    5.1000    0.0000 C   0  0  0  0  0  0  0  0  0  0  0  0
    1.0990    3.4440    0.0000 O   0  0  0  0  0  0  0  0  0  0  0  0
    1.3950    4.9140    0.0000 C   0  0  0  0  0  0  0  0  0  0  0  0
  1  2  1  0  0  0  0
  2  3  1  0  0  0  0
  2 41  1  0  0  0  0
  3  4  1  0  0  0  0
  4  5  1  0  0  0  0
  5  6  1  0  0  0  0
  5 42  1  0  0  0  0
  6  7  1  0  0  0  0
  7  8  1  0  0  0  0
  7 64  1  0  0  0  0
  8  9  2  0  0  0  0
  8 63  1  0  0  0  0
  9 10  1  0  0  0  0
 10 11  2  0  0  0  0
 11 12  1  0  0  0  0
 12 13  2  0  0  0  0
 13 14  1  0  0  0  0
 14 15  1  0  0  0  0
 14 62  1  0  0  0  0
 15 16  1  0  0  0  0
 16 17  1  0  0  0  0
 16 61  1  0  0  0  0
 17 18  2  0  0  0  0
 17 19  1  0  0  0  0
 19 20  1  0  0  0  0
 19 59  1  0  0  0  0
 20 21  1  0  0  0  0
 20 58  1  0  0  0  0
 21 22  2  0  0  0  0
 21 57  1  0  0  0  0
 22 23  1  0  0  0  0
 23 24  1  0  0  0  0
 23 56  1  0  0  0  0
 24 25  2  0  0  0  0
 24 26  1  0  0  0  0
 26 27  1  0  0  0  0
 27 28  1  0  0  0  0
 27 44  1  0  0  0  0
 28 29  1  0  0  0  0
 29 30  2  0  0  0  0
 29 31  1  0  0  0  0
 31 32  1  0  0  0  0
 31 36  1  0  0  0  0
 32 33  1  0  0  0  0
 33 34  1  0  0  0  0
 34 35  1  0  0  0  0
 35 36  1  0  0  0  0
 36 37  1  0  0  0  0
 37 38  2  0  0  0  0
 37 39  1  0  0  0  0
 39 40  2  0  0  0  0
 39 41  1  0  0  0  0
 41 42  1  0  0  0  0
 41 43  1  1  0  0  0
 44 45  1  0  0  0  0
 44 46  1  0  0  0  0
 46 47  1  0  0  0  0
 47 48  1  0  0  0  0
 47 52  1  0  0  0  0
 48 49  1  0  0  0  0
 49 50  1  0  0  0  0
 50 51  1  0  0  0  0
 50 55  1  0  0  0  0
 51 52  1  0  0  0  0
 51 53  1  0  0  0  0
 53 54  1  0  0  0  0
 59 60  1  0  0  0  0
 64 65  1  0  0  0  0
M  END
>  <n>
548

>  <SMILES>
O1[C@@H](CC(=O)[C@@H](\C=C(/C)\[C@@H](O)[C@@H](OC)C(=O)[C@@H](C[C@@H](\C=C\C=C\C=C(/C)\[C@@H](OC)C[C@H]2O[C@](O)([C@@H](CC2)C)C(=O)C(=O)N2[C@@H](CCCC2)C1=O)C)C)C)[C@@H](C[C@H]1C[C@@H](OC)[C@H](O)CC1)C

>  <IC50>
<10

>  <Class>
1

>  <NAME>
SIROLIMUS

>  <INCHI_KEY>
QFJCIRLUMZQUOT-HPLJOQBZSA-N

>  <Reference>
Mitigating the inhibition of human Bile Salt Export Pump by drugs_ opportunities provided by physicochemical property modulation,  in-silico modeling and structural modification_SI

$$$$
SITAGLIPTIN
  MOE2013           2D

 28 30  0  0  1  0  0  0  0  0999 V2000
    9.0930    3.7500    0.0000 C   0  0  0  0  0  0  0  0  0  0  0  0
    9.0930    2.2500    0.0000 C   0  0  0  0  0  0  0  0  0  0  0  0
   10.3920    1.5000    0.0000 C   0  0  0  0  0  0  0  0  0  0  0  0
   11.6910    2.2500    0.0000 C   0  0  0  0  0  0  0  0  0  0  0  0
   11.6910    3.7500    0.0000 C   0  0  0  0  0  0  0  0  0  0  0  0
   10.3920    4.5000    0.0000 C   0  0  0  0  0  0  0  0  0  0  0  0
   10.3920    6.0000    0.0000 F   0  0  0  0  0  0  0  0  0  0  0  0
   12.9900    4.5000    0.0000 F   0  0  0  0  0  0  0  0  0  0  0  0
   10.3920    0.0000    0.0000 F   0  0  0  0  0  0  0  0  0  0  0  0
    7.7940    1.5000    0.0000 C   0  0  0  0  0  0  0  0  0  0  0  0
    6.4950    2.2500    0.0000 C   0  0  3  0  0  0  0  0  0  0  0  0
    5.1960    1.5000    0.0000 C   0  0  0  0  0  0  0  0  0  0  0  0
    3.8970    2.2500    0.0000 C   0  0  0  0  0  0  0  0  0  0  0  0
    3.8970    3.7500    0.0000 O   0  0  0  0  0  0  0  0  0  0  0  0
    2.5980    1.5000    0.0000 N   0  0  0  0  0  0  0  0  0  0  0  0
    2.5980    0.0000    0.0000 C   0  0  0  0  0  0  0  0  0  0  0  0
    1.2990   -0.7500    0.0000 C   0  0  0  0  0  0  0  0  0  0  0  0
    0.0000    0.0000    0.0000 N   0  0  0  0  0  0  0  0  0  0  0  0
    0.0000    1.5000    0.0000 C   0  0  0  0  0  0  0  0  0  0  0  0
   -1.4270    1.9640    0.0000 N   0  0  0  0  0  0  0  0  0  0  0  0
   -2.3080    0.7500    0.0000 N   0  0  0  0  0  0  0  0  0  0  0  0
   -1.4270   -0.4640    0.0000 C   0  0  0  0  0  0  0  0  0  0  0  0
   -1.8900   -1.8900    0.0000 C   0  0  0  0  0  0  0  0  0  0  0  0
   -3.3570   -2.2020    0.0000 F   0  0  0  0  0  0  0  0  0  0  0  0
   -1.8380   -3.3890    0.0000 F   0  0  0  0  0  0  0  0  0  0  0  0
   -0.4050   -2.0990    0.0000 F   0  0  0  0  0  0  0  0  0  0  0  0
    1.2990    2.2500    0.0000 C   0  0  0  0  0  0  0  0  0  0  0  0
    6.4950    3.7500    0.0000 N   0  0  0  0  0  0  0  0  0  0  0  0
  1  2  1  0  0  0  0
  1  6  2  0  0  0  0
  2  3  2  0  0  0  0
  2 10  1  0  0  0  0
  3  4  1  0  0  0  0
  3  9  1  0  0  0  0
  4  5  2  0  0  0  0
  5  6  1  0  0  0  0
  5  8  1  0  0  0  0
  6  7  1  0  0  0  0
 10 11  1  0  0  0  0
 11 12  1  0  0  0  0
 11 28  1  0  0  0  0
 12 13  1  0  0  0  0
 13 14  2  0  0  0  0
 13 15  1  0  0  0  0
 15 16  1  0  0  0  0
 15 27  1  0  0  0  0
 16 17  1  0  0  0  0
 17 18  1  0  0  0  0
 18 19  1  0  0  0  0
 18 22  1  0  0  0  0
 19 20  2  0  0  0  0
 19 27  1  0  0  0  0
 20 21  1  0  0  0  0
 21 22  2  0  0  0  0
 22 23  1  0  0  0  0
 23 24  1  0  0  0  0
 23 25  1  0  0  0  0
 23 26  1  0  0  0  0
M  END
>  <n>
549

>  <SMILES>
Fc1cc(F)c(F)cc1C[C@@H](N)CC(=O)N1CCn2c(nnc2C(F)(F)F)C1

>  <IC50>
147.5

>  <Class>
0

>  <NAME>
SITAGLIPTIN

>  <INCHI_KEY>
MFFMDFFZMYYVKS-SECBINFHSA-N

>  <Reference>
Mitigating the inhibition of human Bile Salt Export Pump by drugs_ opportunities provided by physicochemical property modulation,  in-silico modeling and structural modification_SI

$$$$
SIVELESTAT
  MOE2013           2D

 30 31  0  0  0  0  0  0  0  0999 V2000
   11.6910   -2.2500    0.0000 C   0  0  0  0  0  0  0  0  0  0  0  0
   10.3920   -3.0000    0.0000 C   0  0  0  0  0  0  0  0  0  0  0  0
    9.4280   -4.1490    0.0000 C   0  0  0  0  0  0  0  0  0  0  0  0
   11.3560   -4.1490    0.0000 C   0  0  0  0  0  0  0  0  0  0  0  0
    9.0930   -2.2500    0.0000 C   0  0  0  0  0  0  0  0  0  0  0  0
    9.0930   -0.7500    0.0000 O   0  0  0  0  0  0  0  0  0  0  0  0
    7.7940   -3.0000    0.0000 O   0  0  0  0  0  0  0  0  0  0  0  0
    6.4950   -2.2500    0.0000 C   0  0  0  0  0  0  0  0  0  0  0  0
    6.4950   -0.7500    0.0000 C   0  0  0  0  0  0  0  0  0  0  0  0
    5.1960    0.0000    0.0000 C   0  0  0  0  0  0  0  0  0  0  0  0
    3.8970   -0.7500    0.0000 C   0  0  0  0  0  0  0  0  0  0  0  0
    3.8970   -2.2500    0.0000 C   0  0  0  0  0  0  0  0  0  0  0  0
    5.1960   -3.0000    0.0000 C   0  0  0  0  0  0  0  0  0  0  0  0
    2.5980    0.0000    0.0000 S   0  0  0  0  0  0  0  0  0  0  0  0
    3.5620    1.1490    0.0000 O   0  0  0  0  0  0  0  0  0  0  0  0
    1.6340    1.1490    0.0000 O   0  0  0  0  0  0  0  0  0  0  0  0
    1.2990   -0.7500    0.0000 N   0  0  0  0  0  0  0  0  0  0  0  0
    0.0000    0.0000    0.0000 C   0  0  0  0  0  0  0  0  0  0  0  0
    0.0000    1.5000    0.0000 C   0  0  0  0  0  0  0  0  0  0  0  0
   -1.2990    2.2500    0.0000 C   0  0  0  0  0  0  0  0  0  0  0  0
   -2.5980    1.5000    0.0000 C   0  0  0  0  0  0  0  0  0  0  0  0
   -2.5980    0.0000    0.0000 C   0  0  0  0  0  0  0  0  0  0  0  0
   -1.2990   -0.7500    0.0000 C   0  0  0  0  0  0  0  0  0  0  0  0
   -1.2990   -2.2500    0.0000 C   0  0  0  0  0  0  0  0  0  0  0  0
    0.0000   -3.0000    0.0000 O   0  0  0  0  0  0  0  0  0  0  0  0
   -2.5980   -3.0000    0.0000 N   0  0  0  0  0  0  0  0  0  0  0  0
   -3.8970   -2.2500    0.0000 C   0  0  0  0  0  0  0  0  0  0  0  0
   -5.1960   -3.0000    0.0000 C   0  0  0  0  0  0  0  0  0  0  0  0
   -6.4950   -2.2500    0.0000 O   0  0  0  0  0  0  0  0  0  0  0  0
   -5.1960   -4.5000    0.0000 O   0  0  0  0  0  0  0  0  0  0  0  0
  1  2  1  0  0  0  0
  2  3  1  0  0  0  0
  2  4  1  0  0  0  0
  2  5  1  0  0  0  0
  5  6  2  0  0  0  0
  5  7  1  0  0  0  0
  7  8  1  0  0  0  0
  8  9  1  0  0  0  0
  8 13  2  0  0  0  0
  9 10  2  0  0  0  0
 10 11  1  0  0  0  0
 11 12  2  0  0  0  0
 11 14  1  0  0  0  0
 12 13  1  0  0  0  0
 14 15  2  0  0  0  0
 14 16  2  0  0  0  0
 14 17  1  0  0  0  0
 17 18  1  0  0  0  0
 18 19  1  0  0  0  0
 18 23  2  0  0  0  0
 19 20  2  0  0  0  0
 20 21  1  0  0  0  0
 21 22  2  0  0  0  0
 22 23  1  0  0  0  0
 23 24  1  0  0  0  0
 24 25  2  0  0  0  0
 24 26  1  0  0  0  0
 26 27  1  0  0  0  0
 27 28  1  0  0  0  0
 28 29  2  0  0  0  0
 28 30  1  0  0  0  0
M  END
>  <n>
550

>  <SMILES>
S(=O)(=O)(Nc1ccccc1C(=O)NCC(O)=O)c1ccc(OC(=O)C(C)(C)C)cc1

>  <IC50>
142.2

>  <Class>
0

>  <NAME>
SIVELESTAT

>  <INCHI_KEY>
BTGNGJJLZOIYID-UHFFFAOYSA-N

>  <Reference>
Mitigating the inhibition of human Bile Salt Export Pump by drugs_ opportunities provided by physicochemical property modulation,  in-silico modeling and structural modification_SI

$$$$
SODIUM_FUSIDATE
  MOE2013           2D

 37 40  0  0  1  0  0  0  0  0999 V2000
   -4.8670    2.8710    0.0000 C   0  0  0  0  0  0  0  0  0  0  0  0
   -4.8670    1.3710    0.0000 C   0  0  3  0  0  0  0  0  0  0  0  0
   -3.6550    0.6710    0.0000 C   0  0  3  0  0  0  0  0  0  0  0  0
   -2.4430    1.3710    0.0000 C   0  0  0  0  0  0  0  0  0  0  0  0
   -1.2300    0.6710    0.0000 C   0  0  0  0  0  0  0  0  0  0  0  0
   -1.2300   -0.7290    0.0000 C   0  0  1  0  0  0  0  0  0  0  0  0
   -2.4430   -1.4290    0.0000 C   0  0  3  0  0  0  0  0  0  0  0  0
   -3.6550   -0.7290    0.0000 C   0  0  1  0  0  0  0  0  0  0  0  0
   -4.8670   -1.4290    0.0000 C   0  0  0  0  0  0  0  0  0  0  0  0
   -6.0800   -0.7290    0.0000 C   0  0  0  0  0  0  0  0  0  0  0  0
   -6.0800    0.6710    0.0000 C   0  0  3  0  0  0  0  0  0  0  0  0
   -7.3790    1.4210    0.0000 O   0  0  0  0  0  0  0  0  0  0  0  0
   -3.6550   -2.2290    0.0000 C   0  0  0  0  0  0  0  0  0  0  0  0
   -2.4430   -2.8290    0.0000 C   0  0  3  0  0  0  0  0  0  0  0  0
   -1.2300   -3.5290    0.0000 C   0  0  0  0  0  0  0  0  0  0  0  0
   -0.0180   -2.8290    0.0000 C   0  0  3  0  0  0  0  0  0  0  0  0
   -0.0180   -1.4290    0.0000 C   0  0  2  0  0  0  0  0  0  0  0  0
    1.3140   -0.9960    0.0000 C   0  0  0  0  0  0  0  0  0  0  0  0
    2.1370   -2.1290    0.0000 C   0  0  3  0  0  0  0  0  0  0  0  0
    1.3140   -3.2610    0.0000 C   0  0  0  0  0  0  0  0  0  0  0  0
    1.7770   -4.6880    0.0000 C   0  0  0  0  0  0  0  0  0  0  0  0
    0.7740   -5.8020    0.0000 C   0  0  0  0  0  0  0  0  0  0  0  0
    1.2370   -7.2290    0.0000 C   0  0  0  0  0  0  0  0  0  0  0  0
    0.2340   -8.3440    0.0000 C   0  0  0  0  0  0  0  0  0  0  0  0
    0.6970   -9.7700    0.0000 C   0  0  0  0  0  0  0  0  0  0  0  0
   -0.3070  -10.8850    0.0000 C   0  0  0  0  0  0  0  0  0  0  0  0
    2.1640  -10.0820    0.0000 C   0  0  0  0  0  0  0  0  0  0  0  0
    3.2450   -5.0000    0.0000 C   0  0  0  0  0  0  0  0  0  0  0  0
    3.7080   -6.4260    0.0000 O   0  0  0  0  0  0  0  0  0  0  0  0
    4.2480   -3.8850    0.0000 O   0  0  0  0  0  0  0  0  0  0  0  0
    3.6370   -2.1290    0.0000 O   0  0  0  0  0  0  0  0  0  0  0  0
    4.3870   -0.8300    0.0000 C   0  0  0  0  0  0  0  0  0  0  0  0
    5.8870   -0.8300    0.0000 O   0  0  0  0  0  0  0  0  0  0  0  0
    3.6370    0.4690    0.0000 C   0  0  0  0  0  0  0  0  0  0  0  0
    0.1390    0.0630    0.0000 C   0  0  0  0  0  0  0  0  0  0  0  0
   -3.7420   -3.5790    0.0000 O   0  0  0  0  0  0  0  0  0  0  0  0
    0.0690    0.0210    0.0000 C   0  0  0  0  0  0  0  0  0  0  0  0
  1  2  1  0  0  0  0
  2  3  1  0  0  0  0
  2 11  1  0  0  0  0
  3  4  1  0  0  0  0
  3  8  1  0  0  0  0
  4  5  1  0  0  0  0
  5  6  1  0  0  0  0
  6  7  1  0  0  0  0
  6 17  1  0  0  0  0
  6 37  1  1  0  0  0
  7  8  1  0  0  0  0
  7 14  1  0  0  0  0
  8  9  1  0  0  0  0
  8 13  1  6  0  0  0
  9 10  1  0  0  0  0
 10 11  1  0  0  0  0
 11 12  1  0  0  0  0
 14 15  1  0  0  0  0
 14 36  1  0  0  0  0
 15 16  1  0  0  0  0
 16 17  1  0  0  0  0
 16 20  1  0  0  0  0
 17 18  1  0  0  0  0
 17 35  1  6  0  0  0
 18 19  1  0  0  0  0
 19 20  1  0  0  0  0
 19 31  1  0  0  0  0
 20 21  2  0  0  0  0
 21 22  1  0  0  0  0
 21 28  1  0  0  0  0
 22 23  1  0  0  0  0
 23 24  1  0  0  0  0
 24 25  2  0  0  0  0
 25 26  1  0  0  0  0
 25 27  1  0  0  0  0
 28 29  2  0  0  0  0
 28 30  1  0  0  0  0
 31 32  1  0  0  0  0
 32 33  2  0  0  0  0
 32 34  1  0  0  0  0
M  END
>  <n>
552

>  <SMILES>
O(C(=O)C)[C@H]/1C[C@]2([C@@H](C[C@@H](O)[C@@H]3[C@@]2(CC[C@H]2[C@H](C)[C@H](O)CC[C@@]23C)C)\C\1=C(/CCC=C(C)C)\C(O)=O)C

>  <IC50>
<10

>  <Class>
1

>  <NAME>
SODIUM FUSIDATE

>  <INCHI_KEY>
IECPWNUMDGFDKC-MZJAQBGESA-N

>  <Reference>
Mitigating the inhibition of human Bile Salt Export Pump by drugs_ opportunities provided by physicochemical property modulation,  in-silico modeling and structural modification_SI

$$$$
SPIPERONE
  MOE2013           2D

 29 32  0  0  1  0  0  0  0  0999 V2000
    3.6410   -2.6450    0.0000 C   0  0  0  0  0  0  0  0  0  0  0  0
    3.7970   -1.1530    0.0000 C   0  0  0  0  0  0  0  0  0  0  0  0
    2.5840   -0.2720    0.0000 C   0  0  0  0  0  0  0  0  0  0  0  0
    1.2140   -0.8820    0.0000 C   0  0  0  0  0  0  0  0  0  0  0  0
    1.0570   -2.3740    0.0000 C   0  0  0  0  0  0  0  0  0  0  0  0
    2.2700   -3.2550    0.0000 C   0  0  0  0  0  0  0  0  0  0  0  0
    0.0000    0.0000    0.0000 N   0  0  3  0  0  0  0  0  0  0  0  0
    0.0000    1.5000    0.0000 C   0  0  0  0  0  0  0  0  0  0  0  0
   -1.4270    1.9640    0.0000 N   0  0  0  0  0  0  0  0  0  0  0  0
   -2.3080    0.7500    0.0000 C   0  0  0  0  0  0  0  0  0  0  0  0
   -3.8080    0.7500    0.0000 O   0  0  0  0  0  0  0  0  0  0  0  0
   -1.4270   -0.4640    0.0000 C   0  0  0  0  0  0  0  0  0  0  0  0
   -0.4230   -1.5780    0.0000 C   0  0  0  0  0  0  0  0  0  0  0  0
   -0.8860   -3.0050    0.0000 C   0  0  0  0  0  0  0  0  0  0  0  0
   -2.3540   -3.3170    0.0000 N   0  0  0  0  0  0  0  0  0  0  0  0
   -3.3570   -2.2020    0.0000 C   0  0  0  0  0  0  0  0  0  0  0  0
   -2.8940   -0.7750    0.0000 C   0  0  0  0  0  0  0  0  0  0  0  0
   -2.8170   -4.7430    0.0000 C   0  0  0  0  0  0  0  0  0  0  0  0
   -4.2840   -5.0550    0.0000 C   0  0  0  0  0  0  0  0  0  0  0  0
   -4.7480   -6.4820    0.0000 C   0  0  0  0  0  0  0  0  0  0  0  0
   -6.2150   -6.7940    0.0000 C   0  0  0  0  0  0  0  0  0  0  0  0
   -7.2190   -5.6790    0.0000 O   0  0  0  0  0  0  0  0  0  0  0  0
   -6.6790   -8.2200    0.0000 C   0  0  0  0  0  0  0  0  0  0  0  0
   -8.1460   -8.5320    0.0000 C   0  0  0  0  0  0  0  0  0  0  0  0
   -8.6090   -9.9590    0.0000 C   0  0  0  0  0  0  0  0  0  0  0  0
   -7.6060  -11.0730    0.0000 C   0  0  0  0  0  0  0  0  0  0  0  0
   -6.1380  -10.7620    0.0000 C   0  0  0  0  0  0  0  0  0  0  0  0
   -5.6750   -9.3350    0.0000 C   0  0  0  0  0  0  0  0  0  0  0  0
   -8.0690  -12.5000    0.0000 F   0  0  0  0  0  0  0  0  0  0  0  0
  1  2  1  0  0  0  0
  1  6  2  0  0  0  0
  2  3  2  0  0  0  0
  3  4  1  0  0  0  0
  4  5  2  0  0  0  0
  4  7  1  0  0  0  0
  5  6  1  0  0  0  0
  7  8  1  0  0  0  0
  7 12  1  0  0  0  0
  8  9  1  0  0  0  0
  9 10  1  0  0  0  0
 10 11  2  0  0  0  0
 10 12  1  0  0  0  0
 12 13  1  0  0  0  0
 12 17  1  0  0  0  0
 13 14  1  0  0  0  0
 14 15  1  0  0  0  0
 15 16  1  0  0  0  0
 15 18  1  0  0  0  0
 16 17  1  0  0  0  0
 18 19  1  0  0  0  0
 19 20  1  0  0  0  0
 20 21  1  0  0  0  0
 21 22  2  0  0  0  0
 21 23  1  0  0  0  0
 23 24  1  0  0  0  0
 23 28  2  0  0  0  0
 24 25  2  0  0  0  0
 25 26  1  0  0  0  0
 26 27  2  0  0  0  0
 26 29  1  0  0  0  0
 27 28  1  0  0  0  0
M  END
>  <n>
554

>  <SMILES>
Fc1ccc(cc1)C(=O)CCCN1CCC2(N(CNC2=O)c2ccccc2)CC1

>  <IC50>
<10

>  <Class>
1

>  <NAME>
SPIPERONE

>  <INCHI_KEY>
DKGZKTPJOSAWFA-UHFFFAOYSA-N

>  <Reference>
Mitigating the inhibition of human Bile Salt Export Pump by drugs_ opportunities provided by physicochemical property modulation,  in-silico modeling and structural modification_SI

$$$$
Streptomycin
  MOE2013           2D

 40 42  0  0  1  0  0  0  0  0999 V2000
    0.0000    0.0000    0.0000 C   0  0  3  0  0  0  0  0  0  0  0  0
    1.2140   -0.8820    0.0000 O   0  0  0  0  0  0  0  0  0  0  0  0
    1.0570   -2.3740    0.0000 C   0  0  3  0  0  0  0  0  0  0  0  0
   -0.3140   -2.9840    0.0000 O   0  0  0  0  0  0  0  0  0  0  0  0
   -0.4700   -4.4750    0.0000 C   0  0  3  0  0  0  0  0  0  0  0  0
    0.7430   -5.3570    0.0000 C   0  0  3  0  0  0  0  0  0  0  0  0
    0.5860   -6.8490    0.0000 O   0  0  0  0  0  0  0  0  0  0  0  0
    2.1140   -4.7470    0.0000 C   0  0  3  0  0  0  0  0  0  0  0  0
    3.3270   -5.6290    0.0000 O   0  0  0  0  0  0  0  0  0  0  0  0
    2.2700   -3.2550    0.0000 C   0  0  3  0  0  0  0  0  0  0  0  0
    3.6410   -2.6450    0.0000 N   0  0  0  0  0  0  0  0  0  0  0  0
    4.8540   -3.5270    0.0000 C   0  0  0  0  0  0  0  0  0  0  0  0
   -1.8410   -5.0860    0.0000 C   0  0  0  0  0  0  0  0  0  0  0  0
   -1.9980   -6.5770    0.0000 O   0  0  0  0  0  0  0  0  0  0  0  0
    0.0000    1.5000    0.0000 C   0  0  3  0  0  0  0  0  0  0  0  0
    1.4920    1.3430    0.0000 O   0  0  0  0  0  0  0  0  0  0  0  0
   -1.4270    1.9640    0.0000 C   0  0  3  0  0  0  0  0  0  0  0  0
   -2.3080    0.7500    0.0000 O   0  0  0  0  0  0  0  0  0  0  0  0
   -1.4270   -0.4640    0.0000 C   0  0  3  0  0  0  0  0  0  0  0  0
   -1.8900   -1.8900    0.0000 O   0  0  0  0  0  0  0  0  0  0  0  0
   -3.3570   -2.2020    0.0000 C   0  0  3  0  0  0  0  0  0  0  0  0
   -4.3610   -1.0870    0.0000 C   0  0  3  0  0  0  0  0  0  0  0  0
   -3.8980    0.3390    0.0000 N   0  0  0  0  0  0  0  0  0  0  0  0
   -4.9010    1.4540    0.0000 C   0  0  0  0  0  0  0  0  0  0  0  0
   -6.3680    1.1420    0.0000 N   0  0  0  0  0  0  0  0  0  0  0  0
   -4.4380    2.8810    0.0000 N   0  0  0  0  0  0  0  0  0  0  0  0
   -5.8280   -1.3990    0.0000 C   0  0  3  0  0  0  0  0  0  0  0  0
   -6.8320   -0.2840    0.0000 O   0  0  0  0  0  0  0  0  0  0  0  0
   -6.2920   -2.8260    0.0000 C   0  0  3  0  0  0  0  0  0  0  0  0
   -7.7590   -3.1380    0.0000 N   0  0  0  0  0  0  0  0  0  0  0  0
   -8.7630   -2.0230    0.0000 C   0  0  0  0  0  0  0  0  0  0  0  0
  -10.2300   -2.3350    0.0000 N   0  0  0  0  0  0  0  0  0  0  0  0
   -8.2990   -0.5960    0.0000 N   0  0  0  0  0  0  0  0  0  0  0  0
   -5.2880   -3.9400    0.0000 C   0  0  3  0  0  0  0  0  0  0  0  0
   -5.7520   -5.3670    0.0000 O   0  0  0  0  0  0  0  0  0  0  0  0
   -3.8210   -3.6290    0.0000 C   0  0  3  0  0  0  0  0  0  0  0  0
   -2.8170   -4.7430    0.0000 O   0  0  0  0  0  0  0  0  0  0  0  0
   -1.8900    3.3900    0.0000 C   0  0  0  0  0  0  0  0  0  0  0  0
    0.3120    2.9670    0.0000 C   0  0  0  0  0  0  0  0  0  0  0  0
    1.7380    3.4310    0.0000 O   0  0  0  0  0  0  0  0  0  0  0  0
  1  2  1  0  0  0  0
  1 15  1  0  0  0  0
  1 19  1  0  0  0  0
  2  3  1  0  0  0  0
  3  4  1  0  0  0  0
  3 10  1  0  0  0  0
  4  5  1  0  0  0  0
  5  6  1  0  0  0  0
  5 13  1  0  0  0  0
  6  7  1  0  0  0  0
  6  8  1  0  0  0  0
  8  9  1  0  0  0  0
  8 10  1  0  0  0  0
 10 11  1  0  0  0  0
 11 12  1  0  0  0  0
 13 14  1  0  0  0  0
 15 16  1  0  0  0  0
 15 17  1  0  0  0  0
 15 39  1  0  0  0  0
 17 18  1  0  0  0  0
 17 38  1  0  0  0  0
 18 19  1  0  0  0  0
 19 20  1  0  0  0  0
 20 21  1  0  0  0  0
 21 22  1  0  0  0  0
 21 36  1  0  0  0  0
 22 23  1  0  0  0  0
 22 27  1  0  0  0  0
 23 24  2  0  0  0  0
 24 25  1  0  0  0  0
 24 26  1  0  0  0  0
 27 28  1  0  0  0  0
 27 29  1  0  0  0  0
 29 30  1  0  0  0  0
 29 34  1  0  0  0  0
 30 31  2  0  0  0  0
 31 32  1  0  0  0  0
 31 33  1  0  0  0  0
 34 35  1  0  0  0  0
 34 36  1  0  0  0  0
 36 37  1  0  0  0  0
 39 40  2  0  0  0  0
M  END
>  <n>
75

>  <IC50>
>1000

>  <Class>
0

>  <NAME>
STREPTOMYCIN

>  <INCHI_KEY>
UCSJYZPVAKXKNQ-HZYVHMACSA-N

>  <Reference>
Dawson

$$$$
SUCCINYLSULFATHIAZOLE
  MOE2013           2D

 23 24  0  0  0  0  0  0  0  0999 V2000
    6.3810   -1.4250    0.0000 C   0  0  0  0  0  0  0  0  0  0  0  0
    5.1680   -0.5430    0.0000 C   0  0  0  0  0  0  0  0  0  0  0  0
    3.7970   -1.1530    0.0000 C   0  0  0  0  0  0  0  0  0  0  0  0
    3.6410   -2.6450    0.0000 C   0  0  0  0  0  0  0  0  0  0  0  0
    4.8540   -3.5270    0.0000 C   0  0  0  0  0  0  0  0  0  0  0  0
    6.2240   -2.9170    0.0000 C   0  0  0  0  0  0  0  0  0  0  0  0
    7.4380   -3.7980    0.0000 N   0  0  0  0  0  0  0  0  0  0  0  0
    8.8080   -3.1880    0.0000 C   0  0  0  0  0  0  0  0  0  0  0  0
    8.9650   -1.6960    0.0000 O   0  0  0  0  0  0  0  0  0  0  0  0
   10.0220   -4.0700    0.0000 C   0  0  0  0  0  0  0  0  0  0  0  0
   11.3920   -3.4600    0.0000 C   0  0  0  0  0  0  0  0  0  0  0  0
   12.6060   -4.3410    0.0000 C   0  0  0  0  0  0  0  0  0  0  0  0
   13.9760   -3.7310    0.0000 O   0  0  0  0  0  0  0  0  0  0  0  0
   12.4490   -5.8330    0.0000 O   0  0  0  0  0  0  0  0  0  0  0  0
    2.5840   -0.2720    0.0000 S   0  0  0  0  0  0  0  0  0  0  0  0
    3.6630    0.7700    0.0000 O   0  0  0  0  0  0  0  0  0  0  0  0
    1.7450    0.9720    0.0000 O   0  0  0  0  0  0  0  0  0  0  0  0
    1.2140   -0.8820    0.0000 N   0  0  0  0  0  0  0  0  0  0  0  0
    0.0000    0.0000    0.0000 C   0  0  0  0  0  0  0  0  0  0  0  0
    0.0000    1.5000    0.0000 N   0  0  0  0  0  0  0  0  0  0  0  0
   -1.4270    1.9640    0.0000 C   0  0  0  0  0  0  0  0  0  0  0  0
   -2.3080    0.7500    0.0000 C   0  0  0  0  0  0  0  0  0  0  0  0
   -1.4270   -0.4640    0.0000 S   0  0  0  0  0  0  0  0  0  0  0  0
  1  2  1  0  0  0  0
  1  6  2  0  0  0  0
  2  3  2  0  0  0  0
  3  4  1  0  0  0  0
  3 15  1  0  0  0  0
  4  5  2  0  0  0  0
  5  6  1  0  0  0  0
  6  7  1  0  0  0  0
  7  8  1  0  0  0  0
  8  9  2  0  0  0  0
  8 10  1  0  0  0  0
 10 11  1  0  0  0  0
 11 12  1  0  0  0  0
 12 13  2  0  0  0  0
 12 14  1  0  0  0  0
 15 16  2  0  0  0  0
 15 17  2  0  0  0  0
 15 18  1  0  0  0  0
 18 19  1  0  0  0  0
 19 20  2  0  0  0  0
 19 23  1  0  0  0  0
 20 21  1  0  0  0  0
 21 22  2  0  0  0  0
 22 23  1  0  0  0  0
M  END
>  <n>
557

>  <SMILES>
s1ccnc1NS(=O)(=O)c1ccc(NC(=O)CCC(O)=O)cc1

>  <IC50>
>1000

>  <Class>
0

>  <NAME>
SUCCINYLSULFATHIAZOLE

>  <INCHI_KEY>
SKVLYVHULOWXTD-UHFFFAOYSA-N

>  <Reference>
Mitigating the inhibition of human Bile Salt Export Pump by drugs_ opportunities provided by physicochemical property modulation,  in-silico modeling and structural modification_SI

$$$$
SULFACETAMIDE
  MOE2013           2D

 14 14  0  0  0  0  0  0  0  0999 V2000
    2.5980   -4.5000    0.0000 C   0  0  0  0  0  0  0  0  0  0  0  0
    2.5980   -3.0000    0.0000 C   0  0  0  0  0  0  0  0  0  0  0  0
    3.8970   -2.2500    0.0000 O   0  0  0  0  0  0  0  0  0  0  0  0
    1.2990   -2.2500    0.0000 N   0  0  0  0  0  0  0  0  0  0  0  0
    1.2990   -0.7500    0.0000 S   0  0  0  0  0  0  0  0  0  0  0  0
    2.7760   -1.0100    0.0000 O   0  0  0  0  0  0  0  0  0  0  0  0
    1.8120    0.6600    0.0000 O   0  0  0  0  0  0  0  0  0  0  0  0
    0.0000    0.0000    0.0000 C   0  0  0  0  0  0  0  0  0  0  0  0
    0.0000    1.5000    0.0000 C   0  0  0  0  0  0  0  0  0  0  0  0
   -1.2990    2.2500    0.0000 C   0  0  0  0  0  0  0  0  0  0  0  0
   -2.5980    1.5000    0.0000 C   0  0  0  0  0  0  0  0  0  0  0  0
   -2.5980    0.0000    0.0000 C   0  0  0  0  0  0  0  0  0  0  0  0
   -1.2990   -0.7500    0.0000 C   0  0  0  0  0  0  0  0  0  0  0  0
   -3.8970    2.2500    0.0000 N   0  0  0  0  0  0  0  0  0  0  0  0
  1  2  1  0  0  0  0
  2  3  2  0  0  0  0
  2  4  1  0  0  0  0
  4  5  1  0  0  0  0
  5  6  2  0  0  0  0
  5  7  2  0  0  0  0
  5  8  1  0  0  0  0
  8  9  1  0  0  0  0
  8 13  2  0  0  0  0
  9 10  2  0  0  0  0
 10 11  1  0  0  0  0
 11 12  2  0  0  0  0
 11 14  1  0  0  0  0
 12 13  1  0  0  0  0
M  END
>  <n>
558

>  <SMILES>
S(=O)(=O)(NC(=O)C)c1ccc(N)cc1

>  <IC50>
>1000

>  <Class>
0

>  <NAME>
SULFACETAMIDE

>  <INCHI_KEY>
SKIVFJLNDNKQPD-UHFFFAOYSA-N

>  <Reference>
Mitigating the inhibition of human Bile Salt Export Pump by drugs_ opportunities provided by physicochemical property modulation,  in-silico modeling and structural modification_SI

$$$$
SULFACHLORPYRIDAZINE
  MOE2013           2D

 18 19  0  0  0  0  0  0  0  0999 V2000
    0.0000    0.0000    0.0000 C   0  0  0  0  0  0  0  0  0  0  0  0
    0.0000    1.5000    0.0000 C   0  0  0  0  0  0  0  0  0  0  0  0
   -1.2990    2.2500    0.0000 C   0  0  0  0  0  0  0  0  0  0  0  0
   -2.5980    1.5000    0.0000 C   0  0  0  0  0  0  0  0  0  0  0  0
   -2.5980    0.0000    0.0000 C   0  0  0  0  0  0  0  0  0  0  0  0
   -1.2990   -0.7500    0.0000 C   0  0  0  0  0  0  0  0  0  0  0  0
   -1.2990   -2.2500    0.0000 N   0  0  0  0  0  0  0  0  0  0  0  0
   -1.2990    3.7500    0.0000 S   0  0  0  0  0  0  0  0  0  0  0  0
    0.1780    3.4900    0.0000 O   0  0  0  0  0  0  0  0  0  0  0  0
   -0.7860    5.1600    0.0000 O   0  0  0  0  0  0  0  0  0  0  0  0
   -2.5980    4.5000    0.0000 N   0  0  0  0  0  0  0  0  0  0  0  0
   -2.5980    6.0000    0.0000 C   0  0  0  0  0  0  0  0  0  0  0  0
   -1.2990    6.7500    0.0000 C   0  0  0  0  0  0  0  0  0  0  0  0
   -1.2990    8.2500    0.0000 C   0  0  0  0  0  0  0  0  0  0  0  0
   -2.5980    9.0000    0.0000 C   0  0  0  0  0  0  0  0  0  0  0  0
   -3.8970    8.2500    0.0000 N   0  0  0  0  0  0  0  0  0  0  0  0
   -3.8970    6.7500    0.0000 N   0  0  0  0  0  0  0  0  0  0  0  0
   -2.5980   10.5000    0.0000 Cl  0  0  0  0  0  0  0  0  0  0  0  0
  1  2  1  0  0  0  0
  1  6  2  0  0  0  0
  2  3  2  0  0  0  0
  3  4  1  0  0  0  0
  3  8  1  0  0  0  0
  4  5  2  0  0  0  0
  5  6  1  0  0  0  0
  6  7  1  0  0  0  0
  8  9  2  0  0  0  0
  8 10  2  0  0  0  0
  8 11  1  0  0  0  0
 11 12  1  0  0  0  0
 12 13  1  0  0  0  0
 12 17  2  0  0  0  0
 13 14  2  0  0  0  0
 14 15  1  0  0  0  0
 15 16  2  0  0  0  0
 15 18  1  0  0  0  0
 16 17  1  0  0  0  0
M  END
>  <n>
559

>  <SMILES>
Clc1nnc(NS(=O)(=O)c2ccc(N)cc2)cc1

>  <IC50>
>1000

>  <Class>
0

>  <NAME>
SULFACHLORPYRIDAZINE

>  <INCHI_KEY>
XOXHILFPRYWFOD-UHFFFAOYSA-N

>  <Reference>
Mitigating the inhibition of human Bile Salt Export Pump by drugs_ opportunities provided by physicochemical property modulation,  in-silico modeling and structural modification_SI

$$$$
SULFADIAZINE
  MOE2013           2D

 17 18  0  0  0  0  0  0  0  0999 V2000
    5.1960   -4.5000    0.0000 C   0  0  0  0  0  0  0  0  0  0  0  0
    5.1960   -3.0000    0.0000 C   0  0  0  0  0  0  0  0  0  0  0  0
    3.8970   -2.2500    0.0000 N   0  0  0  0  0  0  0  0  0  0  0  0
    2.5980   -3.0000    0.0000 C   0  0  0  0  0  0  0  0  0  0  0  0
    2.5980   -4.5000    0.0000 N   0  0  0  0  0  0  0  0  0  0  0  0
    3.8970   -5.2500    0.0000 C   0  0  0  0  0  0  0  0  0  0  0  0
    1.2990   -2.2500    0.0000 N   0  0  0  0  0  0  0  0  0  0  0  0
    1.2990   -0.7500    0.0000 S   0  0  0  0  0  0  0  0  0  0  0  0
    2.7760   -1.0100    0.0000 O   0  0  0  0  0  0  0  0  0  0  0  0
    1.8120    0.6600    0.0000 O   0  0  0  0  0  0  0  0  0  0  0  0
    0.0000    0.0000    0.0000 C   0  0  0  0  0  0  0  0  0  0  0  0
    0.0000    1.5000    0.0000 C   0  0  0  0  0  0  0  0  0  0  0  0
   -1.2990    2.2500    0.0000 C   0  0  0  0  0  0  0  0  0  0  0  0
   -2.5980    1.5000    0.0000 C   0  0  0  0  0  0  0  0  0  0  0  0
   -2.5980    0.0000    0.0000 C   0  0  0  0  0  0  0  0  0  0  0  0
   -1.2990   -0.7500    0.0000 C   0  0  0  0  0  0  0  0  0  0  0  0
   -3.8970    2.2500    0.0000 N   0  0  0  0  0  0  0  0  0  0  0  0
  1  2  1  0  0  0  0
  1  6  2  0  0  0  0
  2  3  2  0  0  0  0
  3  4  1  0  0  0  0
  4  5  2  0  0  0  0
  4  7  1  0  0  0  0
  5  6  1  0  0  0  0
  7  8  1  0  0  0  0
  8  9  2  0  0  0  0
  8 10  2  0  0  0  0
  8 11  1  0  0  0  0
 11 12  1  0  0  0  0
 11 16  2  0  0  0  0
 12 13  2  0  0  0  0
 13 14  1  0  0  0  0
 14 15  2  0  0  0  0
 14 17  1  0  0  0  0
 15 16  1  0  0  0  0
M  END
>  <n>
560

>  <SMILES>
S(=O)(=O)(Nc1ncccn1)c1ccc(N)cc1

>  <IC50>
>1000

>  <Class>
0

>  <NAME>
SULFADIAZINE

>  <INCHI_KEY>
SEEPANYCNGTZFQ-UHFFFAOYSA-N

>  <Reference>
Mitigating the inhibition of human Bile Salt Export Pump by drugs_ opportunities provided by physicochemical property modulation,  in-silico modeling and structural modification_SI

$$$$
SULFADIMETHOXINE
  MOE2013           2D

 21 22  0  0  0  0  0  0  0  0999 V2000
    7.7940   -3.0000    0.0000 C   0  0  0  0  0  0  0  0  0  0  0  0
    6.4950   -2.2500    0.0000 O   0  0  0  0  0  0  0  0  0  0  0  0
    5.1960   -3.0000    0.0000 C   0  0  0  0  0  0  0  0  0  0  0  0
    3.8970   -2.2500    0.0000 C   0  0  0  0  0  0  0  0  0  0  0  0
    2.5980   -3.0000    0.0000 C   0  0  0  0  0  0  0  0  0  0  0  0
    2.5980   -4.5000    0.0000 N   0  0  0  0  0  0  0  0  0  0  0  0
    3.8970   -5.2500    0.0000 C   0  0  0  0  0  0  0  0  0  0  0  0
    5.1960   -4.5000    0.0000 N   0  0  0  0  0  0  0  0  0  0  0  0
    3.8970   -6.7500    0.0000 O   0  0  0  0  0  0  0  0  0  0  0  0
    5.1960   -7.5000    0.0000 C   0  0  0  0  0  0  0  0  0  0  0  0
    1.2990   -2.2500    0.0000 N   0  0  0  0  0  0  0  0  0  0  0  0
    1.2990   -0.7500    0.0000 S   0  0  0  0  0  0  0  0  0  0  0  0
    2.7760   -1.0100    0.0000 O   0  0  0  0  0  0  0  0  0  0  0  0
    1.8120    0.6600    0.0000 O   0  0  0  0  0  0  0  0  0  0  0  0
    0.0000    0.0000    0.0000 C   0  0  0  0  0  0  0  0  0  0  0  0
    0.0000    1.5000    0.0000 C   0  0  0  0  0  0  0  0  0  0  0  0
   -1.2990    2.2500    0.0000 C   0  0  0  0  0  0  0  0  0  0  0  0
   -2.5980    1.5000    0.0000 C   0  0  0  0  0  0  0  0  0  0  0  0
   -2.5980    0.0000    0.0000 C   0  0  0  0  0  0  0  0  0  0  0  0
   -1.2990   -0.7500    0.0000 C   0  0  0  0  0  0  0  0  0  0  0  0
   -3.8970    2.2500    0.0000 N   0  0  0  0  0  0  0  0  0  0  0  0
  1  2  1  0  0  0  0
  2  3  1  0  0  0  0
  3  4  1  0  0  0  0
  3  8  2  0  0  0  0
  4  5  2  0  0  0  0
  5  6  1  0  0  0  0
  5 11  1  0  0  0  0
  6  7  2  0  0  0  0
  7  8  1  0  0  0  0
  7  9  1  0  0  0  0
  9 10  1  0  0  0  0
 11 12  1  0  0  0  0
 12 13  2  0  0  0  0
 12 14  2  0  0  0  0
 12 15  1  0  0  0  0
 15 16  1  0  0  0  0
 15 20  2  0  0  0  0
 16 17  2  0  0  0  0
 17 18  1  0  0  0  0
 18 19  2  0  0  0  0
 18 21  1  0  0  0  0
 19 20  1  0  0  0  0
M  END
>  <n>
561

>  <SMILES>
S(=O)(=O)(Nc1nc(OC)nc(OC)c1)c1ccc(N)cc1

>  <IC50>
>1000

>  <Class>
0

>  <NAME>
SULFADIMETHOXINE

>  <INCHI_KEY>
ZZORFUFYDOWNEF-UHFFFAOYSA-N

>  <Reference>
Mitigating the inhibition of human Bile Salt Export Pump by drugs_ opportunities provided by physicochemical property modulation,  in-silico modeling and structural modification_SI

$$$$
SULFADIMIDINE
  MOE2013           2D

 19 20  0  0  0  0  0  0  0  0999 V2000
    3.8970   -6.7500    0.0000 C   0  0  0  0  0  0  0  0  0  0  0  0
    3.8970   -5.2500    0.0000 C   0  0  0  0  0  0  0  0  0  0  0  0
    5.1960   -4.5000    0.0000 C   0  0  0  0  0  0  0  0  0  0  0  0
    5.1960   -3.0000    0.0000 C   0  0  0  0  0  0  0  0  0  0  0  0
    3.8970   -2.2500    0.0000 N   0  0  0  0  0  0  0  0  0  0  0  0
    2.5980   -3.0000    0.0000 C   0  0  0  0  0  0  0  0  0  0  0  0
    2.5980   -4.5000    0.0000 N   0  0  0  0  0  0  0  0  0  0  0  0
    1.2990   -2.2500    0.0000 N   0  0  0  0  0  0  0  0  0  0  0  0
    1.2990   -0.7500    0.0000 S   0  0  0  0  0  0  0  0  0  0  0  0
    2.7760   -1.0100    0.0000 O   0  0  0  0  0  0  0  0  0  0  0  0
    1.8120    0.6600    0.0000 O   0  0  0  0  0  0  0  0  0  0  0  0
    0.0000    0.0000    0.0000 C   0  0  0  0  0  0  0  0  0  0  0  0
    0.0000    1.5000    0.0000 C   0  0  0  0  0  0  0  0  0  0  0  0
   -1.2990    2.2500    0.0000 C   0  0  0  0  0  0  0  0  0  0  0  0
   -2.5980    1.5000    0.0000 C   0  0  0  0  0  0  0  0  0  0  0  0
   -2.5980    0.0000    0.0000 C   0  0  0  0  0  0  0  0  0  0  0  0
   -1.2990   -0.7500    0.0000 C   0  0  0  0  0  0  0  0  0  0  0  0
   -3.8970    2.2500    0.0000 N   0  0  0  0  0  0  0  0  0  0  0  0
    6.4950   -2.2500    0.0000 C   0  0  0  0  0  0  0  0  0  0  0  0
  1  2  1  0  0  0  0
  2  3  1  0  0  0  0
  2  7  2  0  0  0  0
  3  4  2  0  0  0  0
  4  5  1  0  0  0  0
  4 19  1  0  0  0  0
  5  6  2  0  0  0  0
  6  7  1  0  0  0  0
  6  8  1  0  0  0  0
  8  9  1  0  0  0  0
  9 10  2  0  0  0  0
  9 11  2  0  0  0  0
  9 12  1  0  0  0  0
 12 13  1  0  0  0  0
 12 17  2  0  0  0  0
 13 14  2  0  0  0  0
 14 15  1  0  0  0  0
 15 16  2  0  0  0  0
 15 18  1  0  0  0  0
 16 17  1  0  0  0  0
M  END
>  <n>
562

>  <SMILES>
S(=O)(=O)(Nc1nc(cc(n1)C)C)c1ccc(N)cc1

>  <IC50>
>1000

>  <Class>
0

>  <NAME>
SULFADIMIDINE

>  <INCHI_KEY>
ASWVTGNCAZCNNR-UHFFFAOYSA-N

>  <Reference>
Mitigating the inhibition of human Bile Salt Export Pump by drugs_ opportunities provided by physicochemical property modulation,  in-silico modeling and structural modification_SI

$$$$
SULFADOXINE
  MOE2013           2D

 21 22  0  0  0  0  0  0  0  0999 V2000
    5.1960    0.0000    0.0000 C   0  0  0  0  0  0  0  0  0  0  0  0
    3.8970   -0.7500    0.0000 O   0  0  0  0  0  0  0  0  0  0  0  0
    3.8970   -2.2500    0.0000 C   0  0  0  0  0  0  0  0  0  0  0  0
    2.5980   -3.0000    0.0000 C   0  0  0  0  0  0  0  0  0  0  0  0
    2.5980   -4.5000    0.0000 N   0  0  0  0  0  0  0  0  0  0  0  0
    3.8970   -5.2500    0.0000 C   0  0  0  0  0  0  0  0  0  0  0  0
    5.1960   -4.5000    0.0000 N   0  0  0  0  0  0  0  0  0  0  0  0
    5.1960   -3.0000    0.0000 C   0  0  0  0  0  0  0  0  0  0  0  0
    6.4950   -2.2500    0.0000 O   0  0  0  0  0  0  0  0  0  0  0  0
    7.7940   -3.0000    0.0000 C   0  0  0  0  0  0  0  0  0  0  0  0
    1.2990   -2.2500    0.0000 N   0  0  0  0  0  0  0  0  0  0  0  0
    1.2990   -0.7500    0.0000 S   0  0  0  0  0  0  0  0  0  0  0  0
    2.7760   -1.0100    0.0000 O   0  0  0  0  0  0  0  0  0  0  0  0
    1.8120    0.6600    0.0000 O   0  0  0  0  0  0  0  0  0  0  0  0
    0.0000    0.0000    0.0000 C   0  0  0  0  0  0  0  0  0  0  0  0
    0.0000    1.5000    0.0000 C   0  0  0  0  0  0  0  0  0  0  0  0
   -1.2990    2.2500    0.0000 C   0  0  0  0  0  0  0  0  0  0  0  0
   -2.5980    1.5000    0.0000 C   0  0  0  0  0  0  0  0  0  0  0  0
   -2.5980    0.0000    0.0000 C   0  0  0  0  0  0  0  0  0  0  0  0
   -1.2990   -0.7500    0.0000 C   0  0  0  0  0  0  0  0  0  0  0  0
   -3.8970    2.2500    0.0000 N   0  0  0  0  0  0  0  0  0  0  0  0
  1  2  1  0  0  0  0
  2  3  1  0  0  0  0
  3  4  1  0  0  0  0
  3  8  2  0  0  0  0
  4  5  2  0  0  0  0
  4 11  1  0  0  0  0
  5  6  1  0  0  0  0
  6  7  2  0  0  0  0
  7  8  1  0  0  0  0
  8  9  1  0  0  0  0
  9 10  1  0  0  0  0
 11 12  1  0  0  0  0
 12 13  2  0  0  0  0
 12 14  2  0  0  0  0
 12 15  1  0  0  0  0
 15 16  1  0  0  0  0
 15 20  2  0  0  0  0
 16 17  2  0  0  0  0
 17 18  1  0  0  0  0
 18 19  2  0  0  0  0
 18 21  1  0  0  0  0
 19 20  1  0  0  0  0
M  END
>  <n>
563

>  <SMILES>
S(=O)(=O)(Nc1ncnc(OC)c1OC)c1ccc(N)cc1

>  <IC50>
>1000

>  <Class>
0

>  <NAME>
SULFADOXINE

>  <INCHI_KEY>
PJSFRIWCGOHTNF-UHFFFAOYSA-N

>  <Reference>
Mitigating the inhibition of human Bile Salt Export Pump by drugs_ opportunities provided by physicochemical property modulation,  in-silico modeling and structural modification_SI

$$$$
SULFAMERAZINE
  MOE2013           2D

 18 19  0  0  0  0  0  0  0  0999 V2000
    3.8970   -6.7500    0.0000 C   0  0  0  0  0  0  0  0  0  0  0  0
    3.8970   -5.2500    0.0000 C   0  0  0  0  0  0  0  0  0  0  0  0
    5.1960   -4.5000    0.0000 C   0  0  0  0  0  0  0  0  0  0  0  0
    5.1960   -3.0000    0.0000 C   0  0  0  0  0  0  0  0  0  0  0  0
    3.8970   -2.2500    0.0000 N   0  0  0  0  0  0  0  0  0  0  0  0
    2.5980   -3.0000    0.0000 C   0  0  0  0  0  0  0  0  0  0  0  0
    2.5980   -4.5000    0.0000 N   0  0  0  0  0  0  0  0  0  0  0  0
    1.2990   -2.2500    0.0000 N   0  0  0  0  0  0  0  0  0  0  0  0
    1.2990   -0.7500    0.0000 S   0  0  0  0  0  0  0  0  0  0  0  0
    2.7760   -1.0100    0.0000 O   0  0  0  0  0  0  0  0  0  0  0  0
    1.8120    0.6600    0.0000 O   0  0  0  0  0  0  0  0  0  0  0  0
    0.0000    0.0000    0.0000 C   0  0  0  0  0  0  0  0  0  0  0  0
    0.0000    1.5000    0.0000 C   0  0  0  0  0  0  0  0  0  0  0  0
   -1.2990    2.2500    0.0000 C   0  0  0  0  0  0  0  0  0  0  0  0
   -2.5980    1.5000    0.0000 C   0  0  0  0  0  0  0  0  0  0  0  0
   -2.5980    0.0000    0.0000 C   0  0  0  0  0  0  0  0  0  0  0  0
   -1.2990   -0.7500    0.0000 C   0  0  0  0  0  0  0  0  0  0  0  0
   -3.8970    2.2500    0.0000 N   0  0  0  0  0  0  0  0  0  0  0  0
  1  2  1  0  0  0  0
  2  3  1  0  0  0  0
  2  7  2  0  0  0  0
  3  4  2  0  0  0  0
  4  5  1  0  0  0  0
  5  6  2  0  0  0  0
  6  7  1  0  0  0  0
  6  8  1  0  0  0  0
  8  9  1  0  0  0  0
  9 10  2  0  0  0  0
  9 11  2  0  0  0  0
  9 12  1  0  0  0  0
 12 13  1  0  0  0  0
 12 17  2  0  0  0  0
 13 14  2  0  0  0  0
 14 15  1  0  0  0  0
 15 16  2  0  0  0  0
 15 18  1  0  0  0  0
 16 17  1  0  0  0  0
M  END
>  <n>
564

>  <SMILES>
S(=O)(=O)(Nc1nc(ccn1)C)c1ccc(N)cc1

>  <IC50>
>1000

>  <Class>
0

>  <NAME>
SULFAMERAZINE

>  <INCHI_KEY>
QPPBRPIAZZHUNT-UHFFFAOYSA-N

>  <Reference>
Mitigating the inhibition of human Bile Salt Export Pump by drugs_ opportunities provided by physicochemical property modulation,  in-silico modeling and structural modification_SI

$$$$
SULFAMETHIZOLE
  MOE2013           2D

 17 18  0  0  0  0  0  0  0  0999 V2000
    1.2140   -0.8820    0.0000 C   0  0  0  0  0  0  0  0  0  0  0  0
    0.0000    0.0000    0.0000 C   0  0  0  0  0  0  0  0  0  0  0  0
    0.0000    1.5000    0.0000 N   0  0  0  0  0  0  0  0  0  0  0  0
   -1.4270    1.9640    0.0000 N   0  0  0  0  0  0  0  0  0  0  0  0
   -2.3080    0.7500    0.0000 C   0  0  0  0  0  0  0  0  0  0  0  0
   -1.4270   -0.4640    0.0000 S   0  0  0  0  0  0  0  0  0  0  0  0
   -3.8080    0.7500    0.0000 N   0  0  0  0  0  0  0  0  0  0  0  0
   -4.5580    2.0490    0.0000 S   0  0  0  0  0  0  0  0  0  0  0  0
   -3.1490    2.5620    0.0000 O   0  0  0  0  0  0  0  0  0  0  0  0
   -4.8190    3.5260    0.0000 O   0  0  0  0  0  0  0  0  0  0  0  0
   -6.0580    2.0490    0.0000 C   0  0  0  0  0  0  0  0  0  0  0  0
   -6.8080    3.3480    0.0000 C   0  0  0  0  0  0  0  0  0  0  0  0
   -8.3080    3.3480    0.0000 C   0  0  0  0  0  0  0  0  0  0  0  0
   -9.0580    2.0490    0.0000 C   0  0  0  0  0  0  0  0  0  0  0  0
   -8.3080    0.7500    0.0000 C   0  0  0  0  0  0  0  0  0  0  0  0
   -6.8080    0.7500    0.0000 C   0  0  0  0  0  0  0  0  0  0  0  0
  -10.5580    2.0490    0.0000 N   0  0  0  0  0  0  0  0  0  0  0  0
  1  2  1  0  0  0  0
  2  3  2  0  0  0  0
  2  6  1  0  0  0  0
  3  4  1  0  0  0  0
  4  5  2  0  0  0  0
  5  6  1  0  0  0  0
  5  7  1  0  0  0  0
  7  8  1  0  0  0  0
  8  9  2  0  0  0  0
  8 10  2  0  0  0  0
  8 11  1  0  0  0  0
 11 12  1  0  0  0  0
 11 16  2  0  0  0  0
 12 13  2  0  0  0  0
 13 14  1  0  0  0  0
 14 15  2  0  0  0  0
 14 17  1  0  0  0  0
 15 16  1  0  0  0  0
M  END
>  <n>
565

>  <SMILES>
s1c(nnc1NS(=O)(=O)c1ccc(N)cc1)C

>  <IC50>
>1000

>  <Class>
0

>  <NAME>
SULFAMETHIZOLE

>  <INCHI_KEY>
VACCAVUAMIDAGB-UHFFFAOYSA-N

>  <Reference>
Mitigating the inhibition of human Bile Salt Export Pump by drugs_ opportunities provided by physicochemical property modulation,  in-silico modeling and structural modification_SI

$$$$
SULFAMETHOXAZOLE
  MOE2013           2D

 17 18  0  0  0  0  0  0  0  0999 V2000
    1.2140   -0.8820    0.0000 C   0  0  0  0  0  0  0  0  0  0  0  0
    0.0000    0.0000    0.0000 C   0  0  0  0  0  0  0  0  0  0  0  0
    0.0000    1.5000    0.0000 C   0  0  0  0  0  0  0  0  0  0  0  0
   -1.4270    1.9640    0.0000 C   0  0  0  0  0  0  0  0  0  0  0  0
   -2.3080    0.7500    0.0000 N   0  0  0  0  0  0  0  0  0  0  0  0
   -1.4270   -0.4640    0.0000 O   0  0  0  0  0  0  0  0  0  0  0  0
   -1.8900    3.3900    0.0000 N   0  0  0  0  0  0  0  0  0  0  0  0
   -3.3570    3.7020    0.0000 S   0  0  0  0  0  0  0  0  0  0  0  0
   -4.8430    3.4930    0.0000 O   0  0  0  0  0  0  0  0  0  0  0  0
   -3.4100    2.2030    0.0000 O   0  0  0  0  0  0  0  0  0  0  0  0
   -3.8210    5.1290    0.0000 C   0  0  0  0  0  0  0  0  0  0  0  0
   -2.8170    6.2430    0.0000 C   0  0  0  0  0  0  0  0  0  0  0  0
   -3.2810    7.6700    0.0000 C   0  0  0  0  0  0  0  0  0  0  0  0
   -4.7480    7.9820    0.0000 C   0  0  0  0  0  0  0  0  0  0  0  0
   -5.7520    6.8670    0.0000 C   0  0  0  0  0  0  0  0  0  0  0  0
   -5.2880    5.4400    0.0000 C   0  0  0  0  0  0  0  0  0  0  0  0
   -5.2110    9.4080    0.0000 N   0  0  0  0  0  0  0  0  0  0  0  0
  1  2  1  0  0  0  0
  2  3  2  0  0  0  0
  2  6  1  0  0  0  0
  3  4  1  0  0  0  0
  4  5  2  0  0  0  0
  4  7  1  0  0  0  0
  5  6  1  0  0  0  0
  7  8  1  0  0  0  0
  8  9  2  0  0  0  0
  8 10  2  0  0  0  0
  8 11  1  0  0  0  0
 11 12  1  0  0  0  0
 11 16  2  0  0  0  0
 12 13  2  0  0  0  0
 13 14  1  0  0  0  0
 14 15  2  0  0  0  0
 14 17  1  0  0  0  0
 15 16  1  0  0  0  0
M  END
>  <n>
566

>  <SMILES>
S(=O)(=O)(Nc1noc(c1)C)c1ccc(N)cc1

>  <IC50>
>1000

>  <Class>
0

>  <NAME>
SULFAMETHOXAZOLE

>  <INCHI_KEY>
JLKIGFTWXXRPMT-UHFFFAOYSA-N

>  <Reference>
Mitigating the inhibition of human Bile Salt Export Pump by drugs_ opportunities provided by physicochemical property modulation,  in-silico modeling and structural modification_SI

$$$$
SULFISOXAZOLE
  MOE2013           2D

 18 19  0  0  0  0  0  0  0  0999 V2000
    1.2140   -0.8820    0.0000 C   0  0  0  0  0  0  0  0  0  0  0  0
    0.0000    0.0000    0.0000 C   0  0  0  0  0  0  0  0  0  0  0  0
    0.0000    1.5000    0.0000 C   0  0  0  0  0  0  0  0  0  0  0  0
   -1.4270    1.9640    0.0000 N   0  0  0  0  0  0  0  0  0  0  0  0
   -2.3080    0.7500    0.0000 O   0  0  0  0  0  0  0  0  0  0  0  0
   -1.4270   -0.4640    0.0000 C   0  0  0  0  0  0  0  0  0  0  0  0
   -1.8900   -1.8900    0.0000 N   0  0  0  0  0  0  0  0  0  0  0  0
   -3.3570   -2.2020    0.0000 S   0  0  0  0  0  0  0  0  0  0  0  0
   -3.4100   -0.7030    0.0000 O   0  0  0  0  0  0  0  0  0  0  0  0
   -4.8430   -1.9930    0.0000 O   0  0  0  0  0  0  0  0  0  0  0  0
   -3.8210   -3.6290    0.0000 C   0  0  0  0  0  0  0  0  0  0  0  0
   -5.2880   -3.9400    0.0000 C   0  0  0  0  0  0  0  0  0  0  0  0
   -5.7520   -5.3670    0.0000 C   0  0  0  0  0  0  0  0  0  0  0  0
   -4.7480   -6.4820    0.0000 C   0  0  0  0  0  0  0  0  0  0  0  0
   -3.2810   -6.1700    0.0000 C   0  0  0  0  0  0  0  0  0  0  0  0
   -2.8170   -4.7430    0.0000 C   0  0  0  0  0  0  0  0  0  0  0  0
   -5.2110   -7.9080    0.0000 N   0  0  0  0  0  0  0  0  0  0  0  0
    1.2140    2.3820    0.0000 C   0  0  0  0  0  0  0  0  0  0  0  0
  1  2  1  0  0  0  0
  2  3  1  0  0  0  0
  2  6  2  0  0  0  0
  3  4  2  0  0  0  0
  3 18  1  0  0  0  0
  4  5  1  0  0  0  0
  5  6  1  0  0  0  0
  6  7  1  0  0  0  0
  7  8  1  0  0  0  0
  8  9  2  0  0  0  0
  8 10  2  0  0  0  0
  8 11  1  0  0  0  0
 11 12  1  0  0  0  0
 11 16  2  0  0  0  0
 12 13  2  0  0  0  0
 13 14  1  0  0  0  0
 14 15  2  0  0  0  0
 14 17  1  0  0  0  0
 15 16  1  0  0  0  0
M  END
>  <n>
567

>  <SMILES>
S(=O)(=O)(Nc1onc(C)c1C)c1ccc(N)cc1

>  <IC50>
>1000

>  <Class>
0

>  <NAME>
SULFISOXAZOLE

>  <INCHI_KEY>
NHUHCSRWZMLRLA-UHFFFAOYSA-N

>  <Reference>
Mitigating the inhibition of human Bile Salt Export Pump by drugs_ opportunities provided by physicochemical property modulation,  in-silico modeling and structural modification_SI

$$$$
SULINDAC
  MOE2013           2D

 25 27  0  0  1  0  0  0  0  0999 V2000
   -7.7590   -3.1380    0.0000 S   0  0  3  0  0  0  0  0  0  0  0  0
   -8.2220   -4.5640    0.0000 O   0  0  0  0  0  0  0  0  0  0  0  0
   -6.2920   -2.8260    0.0000 C   0  0  0  0  0  0  0  0  0  0  0  0
   -8.7630   -2.0230    0.0000 C   0  0  0  0  0  0  0  0  0  0  0  0
   -5.2880   -3.9400    0.0000 C   0  0  0  0  0  0  0  0  0  0  0  0
   -5.8280   -1.3990    0.0000 C   0  0  0  0  0  0  0  0  0  0  0  0
   -3.8210   -3.6290    0.0000 C   0  0  0  0  0  0  0  0  0  0  0  0
   -4.3610   -1.0870    0.0000 C   0  0  0  0  0  0  0  0  0  0  0  0
   -3.3570   -2.2020    0.0000 C   0  0  0  0  0  0  0  0  0  0  0  0
   -1.8900   -1.8900    0.0000 C   0  0  0  0  0  0  0  0  0  0  0  0
   -1.4270   -0.4640    0.0000 C   0  0  0  0  0  0  0  0  0  0  0  0
    0.0000    0.0000    0.0000 C   0  0  0  0  0  0  0  0  0  0  0  0
   -2.3080    0.7500    0.0000 C   0  0  0  0  0  0  0  0  0  0  0  0
    1.2140   -0.8820    0.0000 C   0  0  0  0  0  0  0  0  0  0  0  0
    0.0000    1.5000    0.0000 C   0  0  0  0  0  0  0  0  0  0  0  0
   -1.4270    1.9640    0.0000 C   0  0  0  0  0  0  0  0  0  0  0  0
   -3.8000    0.9070    0.0000 C   0  0  0  0  0  0  0  0  0  0  0  0
    1.2140    2.3820    0.0000 C   0  0  0  0  0  0  0  0  0  0  0  0
   -2.0370    3.3340    0.0000 C   0  0  0  0  0  0  0  0  0  0  0  0
   -4.4100    2.2770    0.0000 C   0  0  0  0  0  0  0  0  0  0  0  0
    1.0570    3.8740    0.0000 C   0  0  0  0  0  0  0  0  0  0  0  0
   -3.5280    3.4910    0.0000 C   0  0  0  0  0  0  0  0  0  0  0  0
    2.2700    4.7550    0.0000 O   0  0  0  0  0  0  0  0  0  0  0  0
   -0.3140    4.4840    0.0000 O   0  0  0  0  0  0  0  0  0  0  0  0
   -4.1390    4.8610    0.0000 F   0  0  0  0  0  0  0  0  0  0  0  0
  1  2  2  0  0  0  0
  1  3  1  0  0  0  0
  1  4  1  0  0  0  0
  3  5  1  0  0  0  0
  3  6  2  0  0  0  0
  5  7  2  0  0  0  0
  6  8  1  0  0  0  0
  7  9  1  0  0  0  0
  8  9  2  0  0  0  0
  9 10  1  0  0  0  0
 10 11  2  0  0  0  0
 11 12  1  0  0  0  0
 11 13  1  0  0  0  0
 12 14  1  0  0  0  0
 12 15  2  0  0  0  0
 13 16  1  0  0  0  0
 13 17  2  0  0  0  0
 15 16  1  0  0  0  0
 15 18  1  0  0  0  0
 16 19  2  0  0  0  0
 17 20  1  0  0  0  0
 18 21  1  0  0  0  0
 19 22  1  0  0  0  0
 20 22  2  0  0  0  0
 21 23  2  0  0  0  0
 21 24  1  0  0  0  0
 22 25  1  0  0  0  0
M  END
>  <n>
568

>  <SMILES>
S(=O)(C)c1ccc(cc1)\C=C\1/c2c(cc(F)cc2)C(CC(O)=O)=C/1C

>  <IC50>
63.69

>  <Class>
0

>  <NAME>
SULINDAC

>  <INCHI_KEY>
MLKXDPUZXIRXEP-MFOYZWKCSA-N

>  <Reference>
Mitigating, Dawson

$$$$
SULPIRIDE
  MOE2013           2D

 23 24  0  0  1  0  0  0  0  0999 V2000
    2.5840   -0.2720    0.0000 C   0  0  0  0  0  0  0  0  0  0  0  0
    1.2140   -0.8820    0.0000 C   0  0  0  0  0  0  0  0  0  0  0  0
    0.0000    0.0000    0.0000 N   0  0  3  0  0  0  0  0  0  0  0  0
    0.0000    1.5000    0.0000 C   0  0  0  0  0  0  0  0  0  0  0  0
   -1.4270    1.9640    0.0000 C   0  0  0  0  0  0  0  0  0  0  0  0
   -2.3080    0.7500    0.0000 C   0  0  0  0  0  0  0  0  0  0  0  0
   -1.4270   -0.4640    0.0000 C   0  0  3  0  0  0  0  0  0  0  0  0
   -1.8900   -1.8900    0.0000 C   0  0  0  0  0  0  0  0  0  0  0  0
   -3.3570   -2.2020    0.0000 N   0  0  0  0  0  0  0  0  0  0  0  0
   -3.8210   -3.6290    0.0000 C   0  0  0  0  0  0  0  0  0  0  0  0
   -2.8170   -4.7430    0.0000 O   0  0  0  0  0  0  0  0  0  0  0  0
   -5.2880   -3.9400    0.0000 C   0  0  0  0  0  0  0  0  0  0  0  0
   -6.2920   -2.8260    0.0000 C   0  0  0  0  0  0  0  0  0  0  0  0
   -7.7590   -3.1380    0.0000 C   0  0  0  0  0  0  0  0  0  0  0  0
   -8.2220   -4.5640    0.0000 C   0  0  0  0  0  0  0  0  0  0  0  0
   -7.2190   -5.6790    0.0000 C   0  0  0  0  0  0  0  0  0  0  0  0
   -5.7520   -5.3670    0.0000 C   0  0  0  0  0  0  0  0  0  0  0  0
   -4.7480   -6.4820    0.0000 O   0  0  0  0  0  0  0  0  0  0  0  0
   -5.2110   -7.9080    0.0000 C   0  0  0  0  0  0  0  0  0  0  0  0
   -8.7630   -2.0230    0.0000 S   0  0  0  0  0  0  0  0  0  0  0  0
  -10.2300   -2.3350    0.0000 O   0  0  0  0  0  0  0  0  0  0  0  0
   -7.4910   -1.2280    0.0000 O   0  0  0  0  0  0  0  0  0  0  0  0
   -9.3250   -0.6320    0.0000 N   0  0  0  0  0  0  0  0  0  0  0  0
  1  2  1  0  0  0  0
  2  3  1  0  0  0  0
  3  4  1  0  0  0  0
  3  7  1  0  0  0  0
  4  5  1  0  0  0  0
  5  6  1  0  0  0  0
  6  7  1  0  0  0  0
  7  8  1  0  0  0  0
  8  9  1  0  0  0  0
  9 10  1  0  0  0  0
 10 11  2  0  0  0  0
 10 12  1  0  0  0  0
 12 13  1  0  0  0  0
 12 17  2  0  0  0  0
 13 14  2  0  0  0  0
 14 15  1  0  0  0  0
 14 20  1  0  0  0  0
 15 16  2  0  0  0  0
 16 17  1  0  0  0  0
 17 18  1  0  0  0  0
 18 19  1  0  0  0  0
 20 21  2  0  0  0  0
 20 22  2  0  0  0  0
 20 23  1  0  0  0  0
M  END
>  <n>
569

>  <SMILES>
S(=O)(=O)(N)c1cc(C(=O)NCC2N(CCC2)CC)c(OC)cc1

>  <IC50>
276.2

>  <Class>
0

>  <NAME>
SULPIRIDE

>  <INCHI_KEY>
BGRJTUBHPOOWDU-UHFFFAOYSA-N

>  <Reference>
Mitigating, Dawson

$$$$
SURAMIN
  MOE2013           2D

 86 93  0  0  0  0  0  0  0  0999 V2000
    7.7940   -3.0000    0.0000 C   0  0  0  0  0  0  0  0  0  0  0  0
    6.4950   -2.2500    0.0000 C   0  0  0  0  0  0  0  0  0  0  0  0
    6.4950   -0.7500    0.0000 C   0  0  0  0  0  0  0  0  0  0  0  0
    5.1960    0.0000    0.0000 C   0  0  0  0  0  0  0  0  0  0  0  0
    3.8970   -0.7500    0.0000 C   0  0  0  0  0  0  0  0  0  0  0  0
    3.8970   -2.2500    0.0000 C   0  0  0  0  0  0  0  0  0  0  0  0
    5.1960   -3.0000    0.0000 C   0  0  0  0  0  0  0  0  0  0  0  0
    5.1960   -4.5000    0.0000 N   0  0  0  0  0  0  0  0  0  0  0  0
    6.4950   -5.2500    0.0000 C   0  0  0  0  0  0  0  0  0  0  0  0
    7.7940   -4.5000    0.0000 O   0  0  0  0  0  0  0  0  0  0  0  0
    6.4950   -6.7500    0.0000 C   0  0  0  0  0  0  0  0  0  0  0  0
    5.1960   -7.5000    0.0000 C   0  0  0  0  0  0  0  0  0  0  0  0
    5.1960   -9.0000    0.0000 C   0  0  0  0  0  0  0  0  0  0  0  0
    6.4950   -9.7500    0.0000 C   0  0  0  0  0  0  0  0  0  0  0  0
    7.7940   -9.0000    0.0000 C   0  0  0  0  0  0  0  0  0  0  0  0
    7.7940   -7.5000    0.0000 C   0  0  0  0  0  0  0  0  0  0  0  0
    9.0930   -9.7500    0.0000 N   0  0  0  0  0  0  0  0  0  0  0  0
    9.0930  -11.2500    0.0000 C   0  0  0  0  0  0  0  0  0  0  0  0
    7.7940  -12.0000    0.0000 O   0  0  0  0  0  0  0  0  0  0  0  0
   10.3920  -12.0000    0.0000 N   0  0  0  0  0  0  0  0  0  0  0  0
   10.3920  -13.5000    0.0000 C   0  0  0  0  0  0  0  0  0  0  0  0
    9.0930  -14.2500    0.0000 C   0  0  0  0  0  0  0  0  0  0  0  0
    9.0930  -15.7500    0.0000 C   0  0  0  0  0  0  0  0  0  0  0  0
   10.3920  -16.5000    0.0000 C   0  0  0  0  0  0  0  0  0  0  0  0
   11.6910  -15.7500    0.0000 C   0  0  0  0  0  0  0  0  0  0  0  0
   11.6910  -14.2500    0.0000 C   0  0  0  0  0  0  0  0  0  0  0  0
   12.9900  -16.5000    0.0000 C   0  0  0  0  0  0  0  0  0  0  0  0
   14.2890  -15.7500    0.0000 O   0  0  0  0  0  0  0  0  0  0  0  0
   12.9900  -18.0000    0.0000 N   0  0  0  0  0  0  0  0  0  0  0  0
   14.2890  -18.7500    0.0000 C   0  0  0  0  0  0  0  0  0  0  0  0
   14.2890  -20.2500    0.0000 C   0  0  0  0  0  0  0  0  0  0  0  0
   15.5880  -21.0000    0.0000 C   0  0  0  0  0  0  0  0  0  0  0  0
   16.8880  -20.2500    0.0000 C   0  0  0  0  0  0  0  0  0  0  0  0
   16.8880  -18.7500    0.0000 C   0  0  0  0  0  0  0  0  0  0  0  0
   15.5880  -18.0000    0.0000 C   0  0  0  0  0  0  0  0  0  0  0  0
   15.5880  -16.5000    0.0000 C   0  0  0  0  0  0  0  0  0  0  0  0
   15.5880  -22.5000    0.0000 C   0  0  0  0  0  0  0  0  0  0  0  0
   14.2890  -23.2500    0.0000 O   0  0  0  0  0  0  0  0  0  0  0  0
   16.8880  -23.2500    0.0000 N   0  0  0  0  0  0  0  0  0  0  0  0
   16.8880  -24.7500    0.0000 C   0  0  0  0  0  0  0  0  0  0  0  0
   15.5880  -25.5000    0.0000 C   0  0  0  0  0  0  0  0  0  0  0  0
   15.5880  -27.0000    0.0000 C   0  0  0  0  0  0  0  0  0  0  0  0
   16.8880  -27.7500    0.0000 C   0  0  0  0  0  0  0  0  0  0  0  0
   18.1860  -27.0000    0.0000 C   0  0  0  0  0  0  0  0  0  0  0  0
   18.1860  -25.5000    0.0000 C   0  0  0  0  0  0  0  0  0  0  0  0
   19.4860  -24.7500    0.0000 C   0  0  0  0  0  0  0  0  0  0  0  0
   20.7850  -25.5000    0.0000 C   0  0  0  0  0  0  0  0  0  0  0  0
   20.7850  -27.0000    0.0000 C   0  0  0  0  0  0  0  0  0  0  0  0
   19.4860  -27.7500    0.0000 C   0  0  0  0  0  0  0  0  0  0  0  0
   22.0840  -27.7500    0.0000 S   0  0  0  0  0  0  0  0  0  0  0  0
   22.0840  -29.2500    0.0000 O   0  0  0  0  0  0  0  0  0  0  0  0
   23.5610  -28.0100    0.0000 O   0  0  0  0  0  0  0  0  0  0  0  0
   22.5970  -26.3400    0.0000 O   0  0  0  0  0  0  0  0  0  0  0  0
   19.4860  -23.2500    0.0000 S   0  0  0  0  0  0  0  0  0  0  0  0
   20.7850  -22.5000    0.0000 O   0  0  0  0  0  0  0  0  0  0  0  0
   18.9720  -21.8400    0.0000 O   0  0  0  0  0  0  0  0  0  0  0  0
   18.0080  -23.5100    0.0000 O   0  0  0  0  0  0  0  0  0  0  0  0
   16.8880  -29.2500    0.0000 S   0  0  0  0  0  0  0  0  0  0  0  0
   18.1860  -30.0000    0.0000 O   0  0  0  0  0  0  0  0  0  0  0  0
   15.4100  -28.9900    0.0000 O   0  0  0  0  0  0  0  0  0  0  0  0
   16.3750  -30.6600    0.0000 O   0  0  0  0  0  0  0  0  0  0  0  0
    2.5980    0.0000    0.0000 C   0  0  0  0  0  0  0  0  0  0  0  0
    2.5980    1.5000    0.0000 O   0  0  0  0  0  0  0  0  0  0  0  0
    1.2990   -0.7500    0.0000 N   0  0  0  0  0  0  0  0  0  0  0  0
    0.0000    0.0000    0.0000 C   0  0  0  0  0  0  0  0  0  0  0  0
    0.0000    1.5000    0.0000 C   0  0  0  0  0  0  0  0  0  0  0  0
   -1.2990    2.2500    0.0000 C   0  0  0  0  0  0  0  0  0  0  0  0
   -2.5980    1.5000    0.0000 C   0  0  0  0  0  0  0  0  0  0  0  0
   -2.5980    0.0000    0.0000 C   0  0  0  0  0  0  0  0  0  0  0  0
   -1.2990   -0.7500    0.0000 C   0  0  0  0  0  0  0  0  0  0  0  0
   -1.2990   -2.2500    0.0000 C   0  0  0  0  0  0  0  0  0  0  0  0
   -2.5980   -3.0000    0.0000 C   0  0  0  0  0  0  0  0  0  0  0  0
   -3.8970   -2.2500    0.0000 C   0  0  0  0  0  0  0  0  0  0  0  0
   -3.8970   -0.7500    0.0000 C   0  0  0  0  0  0  0  0  0  0  0  0
   -5.1960   -3.0000    0.0000 S   0  0  0  0  0  0  0  0  0  0  0  0
   -6.4950   -2.2500    0.0000 O   0  0  0  0  0  0  0  0  0  0  0  0
   -6.1600   -4.1490    0.0000 O   0  0  0  0  0  0  0  0  0  0  0  0
   -4.2320   -4.1490    0.0000 O   0  0  0  0  0  0  0  0  0  0  0  0
    0.0000   -3.0000    0.0000 S   0  0  0  0  0  0  0  0  0  0  0  0
    1.2990   -2.2500    0.0000 O   0  0  0  0  0  0  0  0  0  0  0  0
   -0.9640   -4.1490    0.0000 O   0  0  0  0  0  0  0  0  0  0  0  0
    0.9640   -4.1490    0.0000 O   0  0  0  0  0  0  0  0  0  0  0  0
   -3.8970    2.2500    0.0000 S   0  0  0  0  0  0  0  0  0  0  0  0
   -3.8970    3.7500    0.0000 O   0  0  0  0  0  0  0  0  0  0  0  0
   -5.3740    2.5100    0.0000 O   0  0  0  0  0  0  0  0  0  0  0  0
   -4.4100    0.8400    0.0000 O   0  0  0  0  0  0  0  0  0  0  0  0
  1  2  1  0  0  0  0
  2  3  1  0  0  0  0
  2  7  2  0  0  0  0
  3  4  2  0  0  0  0
  4  5  1  0  0  0  0
  5  6  2  0  0  0  0
  5 62  1  0  0  0  0
  6  7  1  0  0  0  0
  7  8  1  0  0  0  0
  8  9  1  0  0  0  0
  9 10  2  0  0  0  0
  9 11  1  0  0  0  0
 11 12  1  0  0  0  0
 11 16  2  0  0  0  0
 12 13  2  0  0  0  0
 13 14  1  0  0  0  0
 14 15  2  0  0  0  0
 15 16  1  0  0  0  0
 15 17  1  0  0  0  0
 17 18  1  0  0  0  0
 18 19  2  0  0  0  0
 18 20  1  0  0  0  0
 20 21  1  0  0  0  0
 21 22  1  0  0  0  0
 21 26  2  0  0  0  0
 22 23  2  0  0  0  0
 23 24  1  0  0  0  0
 24 25  2  0  0  0  0
 25 26  1  0  0  0  0
 25 27  1  0  0  0  0
 27 28  2  0  0  0  0
 27 29  1  0  0  0  0
 29 30  1  0  0  0  0
 30 31  1  0  0  0  0
 30 35  2  0  0  0  0
 31 32  2  0  0  0  0
 32 33  1  0  0  0  0
 32 37  1  0  0  0  0
 33 34  2  0  0  0  0
 34 35  1  0  0  0  0
 35 36  1  0  0  0  0
 37 38  2  0  0  0  0
 37 39  1  0  0  0  0
 39 40  1  0  0  0  0
 40 41  2  0  0  0  0
 40 45  1  0  0  0  0
 41 42  1  0  0  0  0
 42 43  2  0  0  0  0
 43 44  1  0  0  0  0
 43 58  1  0  0  0  0
 44 45  1  0  0  0  0
 44 49  2  0  0  0  0
 45 46  2  0  0  0  0
 46 47  1  0  0  0  0
 46 54  1  0  0  0  0
 47 48  2  0  0  0  0
 48 49  1  0  0  0  0
 48 50  1  0  0  0  0
 50 51  2  0  0  0  0
 50 52  2  0  0  0  0
 50 53  1  0  0  0  0
 54 55  2  0  0  0  0
 54 56  2  0  0  0  0
 54 57  1  0  0  0  0
 58 59  2  0  0  0  0
 58 60  2  0  0  0  0
 58 61  1  0  0  0  0
 62 63  2  0  0  0  0
 62 64  1  0  0  0  0
 64 65  1  0  0  0  0
 65 66  2  0  0  0  0
 65 70  1  0  0  0  0
 66 67  1  0  0  0  0
 67 68  2  0  0  0  0
 68 69  1  0  0  0  0
 68 83  1  0  0  0  0
 69 70  1  0  0  0  0
 69 74  2  0  0  0  0
 70 71  2  0  0  0  0
 71 72  1  0  0  0  0
 71 79  1  0  0  0  0
 72 73  2  0  0  0  0
 73 74  1  0  0  0  0
 73 75  1  0  0  0  0
 75 76  2  0  0  0  0
 75 77  2  0  0  0  0
 75 78  1  0  0  0  0
 79 80  2  0  0  0  0
 79 81  2  0  0  0  0
 79 82  1  0  0  0  0
 83 84  2  0  0  0  0
 83 85  2  0  0  0  0
 83 86  1  0  0  0  0
M  END
>  <n>
570

>  <SMILES>
S(O)(=O)(=O)c1c2c(cc(S(O)(=O)=O)c1)c(S(O)(=O)=O)ccc2NC(=O)c1cc(NC(=O)c2cc(NC(=O)Nc3cc(ccc3)C(=O)Nc3cc(ccc3C)C(=O)Nc3c4c(cc(S(O)(=O)=O)cc4S(O)(=O)=O)c(S(O)(=O)=O)cc3)ccc2)c(cc1)C

>  <IC50>
107

>  <Class>
0

>  <NAME>
SURAMIN

>  <INCHI_KEY>
FIAFUQMPZJWCLV-UHFFFAOYSA-N

>  <Reference>
Mitigating the inhibition of human Bile Salt Export Pump by drugs_ opportunities provided by physicochemical property modulation,  in-silico modeling and structural modification_SI

$$$$
Salicylamide
  MOE2013           2D

 10 10  0  0  0  0  0  0  0  0999 V2000
    0.0000    0.0000    0.0000 C   0  0  0  0  0  0  0  0  0  0  0  0
    0.0000    1.5000    0.0000 C   0  0  0  0  0  0  0  0  0  0  0  0
   -1.2990    2.2500    0.0000 C   0  0  0  0  0  0  0  0  0  0  0  0
   -2.5980    1.5000    0.0000 C   0  0  0  0  0  0  0  0  0  0  0  0
   -2.5980    0.0000    0.0000 C   0  0  0  0  0  0  0  0  0  0  0  0
   -1.2990   -0.7500    0.0000 C   0  0  0  0  0  0  0  0  0  0  0  0
   -3.8970   -0.7500    0.0000 C   0  0  0  0  0  0  0  0  0  0  0  0
   -3.8970   -2.2500    0.0000 O   0  0  0  0  0  0  0  0  0  0  0  0
   -5.1960    0.0000    0.0000 N   0  0  0  0  0  0  0  0  0  0  0  0
   -3.8970    2.2500    0.0000 O   0  0  0  0  0  0  0  0  0  0  0  0
  1  2  1  0  0  0  0
  1  6  2  0  0  0  0
  2  3  2  0  0  0  0
  3  4  1  0  0  0  0
  4  5  2  0  0  0  0
  4 10  1  0  0  0  0
  5  6  1  0  0  0  0
  5  7  1  0  0  0  0
  7  8  2  0  0  0  0
  7  9  1  0  0  0  0
M  END
>  <n>
540

>  <SMILES>
Oc1ccccc1C(=O)N

>  <IC50>
>1000

>  <Class>
0

>  <NAME>
Salicylamide

>  <INCHI_KEY>
SKZKKFZAGNVIMN-UHFFFAOYSA-N

>  <Reference>
Mitigating the inhibition of human Bile Salt Export Pump by drugs_ opportunities provided by physicochemical property modulation,  in-silico modeling and structural modification_SI

$$$$
Sorafenib
  MOE2013           2D

 32 34  0  0  0  0  0  0  0  0999 V2000
   16.8880    2.2500    0.0000 C   0  0  0  0  0  0  0  0  0  0  0  0
   15.5880    1.5000    0.0000 N   0  0  0  0  0  0  0  0  0  0  0  0
   14.2890    2.2500    0.0000 C   0  0  0  0  0  0  0  0  0  0  0  0
   14.2890    3.7500    0.0000 O   0  0  0  0  0  0  0  0  0  0  0  0
   12.9900    1.5000    0.0000 C   0  0  0  0  0  0  0  0  0  0  0  0
   11.6910    2.2500    0.0000 C   0  0  0  0  0  0  0  0  0  0  0  0
   10.3920    1.5000    0.0000 C   0  0  0  0  0  0  0  0  0  0  0  0
   10.3920    0.0000    0.0000 C   0  0  0  0  0  0  0  0  0  0  0  0
   11.6910   -0.7500    0.0000 C   0  0  0  0  0  0  0  0  0  0  0  0
   12.9900    0.0000    0.0000 N   0  0  0  0  0  0  0  0  0  0  0  0
    9.0930    2.2500    0.0000 O   0  0  0  0  0  0  0  0  0  0  0  0
    7.7940    1.5000    0.0000 C   0  0  0  0  0  0  0  0  0  0  0  0
    6.4950    2.2500    0.0000 C   0  0  0  0  0  0  0  0  0  0  0  0
    5.1960    1.5000    0.0000 C   0  0  0  0  0  0  0  0  0  0  0  0
    5.1960    0.0000    0.0000 C   0  0  0  0  0  0  0  0  0  0  0  0
    6.4950   -0.7500    0.0000 C   0  0  0  0  0  0  0  0  0  0  0  0
    7.7940    0.0000    0.0000 C   0  0  0  0  0  0  0  0  0  0  0  0
    3.8970   -0.7500    0.0000 N   0  0  0  0  0  0  0  0  0  0  0  0
    2.5980    0.0000    0.0000 C   0  0  0  0  0  0  0  0  0  0  0  0
    2.5980    1.5000    0.0000 O   0  0  0  0  0  0  0  0  0  0  0  0
    1.2990   -0.7500    0.0000 N   0  0  0  0  0  0  0  0  0  0  0  0
    0.0000    0.0000    0.0000 C   0  0  0  0  0  0  0  0  0  0  0  0
    0.0000    1.5000    0.0000 C   0  0  0  0  0  0  0  0  0  0  0  0
   -1.2990    2.2500    0.0000 C   0  0  0  0  0  0  0  0  0  0  0  0
   -2.5980    1.5000    0.0000 C   0  0  0  0  0  0  0  0  0  0  0  0
   -2.5980    0.0000    0.0000 C   0  0  0  0  0  0  0  0  0  0  0  0
   -1.2990   -0.7500    0.0000 C   0  0  0  0  0  0  0  0  0  0  0  0
   -3.8970   -0.7500    0.0000 C   0  0  0  0  0  0  0  0  0  0  0  0
   -5.1960    0.0000    0.0000 F   0  0  0  0  0  0  0  0  0  0  0  0
   -4.8610   -1.8990    0.0000 F   0  0  0  0  0  0  0  0  0  0  0  0
   -2.9330   -1.8990    0.0000 F   0  0  0  0  0  0  0  0  0  0  0  0
   -3.8970    2.2500    0.0000 Cl  0  0  0  0  0  0  0  0  0  0  0  0
  1  2  1  0  0  0  0
  2  3  1  0  0  0  0
  3  4  2  0  0  0  0
  3  5  1  0  0  0  0
  5  6  1  0  0  0  0
  5 10  2  0  0  0  0
  6  7  2  0  0  0  0
  7  8  1  0  0  0  0
  7 11  1  0  0  0  0
  8  9  2  0  0  0  0
  9 10  1  0  0  0  0
 11 12  1  0  0  0  0
 12 13  1  0  0  0  0
 12 17  2  0  0  0  0
 13 14  2  0  0  0  0
 14 15  1  0  0  0  0
 15 16  2  0  0  0  0
 15 18  1  0  0  0  0
 16 17  1  0  0  0  0
 18 19  1  0  0  0  0
 19 20  2  0  0  0  0
 19 21  1  0  0  0  0
 21 22  1  0  0  0  0
 22 23  1  0  0  0  0
 22 27  2  0  0  0  0
 23 24  2  0  0  0  0
 24 25  1  0  0  0  0
 25 26  2  0  0  0  0
 25 32  1  0  0  0  0
 26 27  1  0  0  0  0
 26 28  1  0  0  0  0
 28 29  1  0  0  0  0
 28 30  1  0  0  0  0
 28 31  1  0  0  0  0
M  END
>  <n>
553

>  <SMILES>
Clc1ccc(NC(=O)Nc2ccc(Oc3cc(ncc3)C(=O)NC)cc2)cc1C(F)(F)F

>  <IC50>
<10

>  <Class>
1

>  <NAME>
Sorafenib

>  <INCHI_KEY>
MLDQJTXFUGDVEO-UHFFFAOYSA-N

>  <Reference>
Mitigating, Interference

$$$$
TACRINE
  MOE2013           2D

 15 17  0  0  0  0  0  0  0  0999 V2000
    2.5980    1.5000    0.0000 C   0  0  0  0  0  0  0  0  0  0  0  0
    2.5980    0.0000    0.0000 C   0  0  0  0  0  0  0  0  0  0  0  0
    1.2990   -0.7500    0.0000 C   0  0  0  0  0  0  0  0  0  0  0  0
    0.0000    0.0000    0.0000 C   0  0  0  0  0  0  0  0  0  0  0  0
    0.0000    1.5000    0.0000 C   0  0  0  0  0  0  0  0  0  0  0  0
    1.2990    2.2500    0.0000 C   0  0  0  0  0  0  0  0  0  0  0  0
   -1.2990    2.2500    0.0000 C   0  0  0  0  0  0  0  0  0  0  0  0
   -2.5980    1.5000    0.0000 C   0  0  0  0  0  0  0  0  0  0  0  0
   -2.5980    0.0000    0.0000 C   0  0  0  0  0  0  0  0  0  0  0  0
   -1.2990   -0.7500    0.0000 N   0  0  0  0  0  0  0  0  0  0  0  0
   -3.8970   -0.7500    0.0000 C   0  0  0  0  0  0  0  0  0  0  0  0
   -5.1960    0.0000    0.0000 C   0  0  0  0  0  0  0  0  0  0  0  0
   -5.1960    1.5000    0.0000 C   0  0  0  0  0  0  0  0  0  0  0  0
   -3.8970    2.2500    0.0000 C   0  0  0  0  0  0  0  0  0  0  0  0
   -1.2990    3.7500    0.0000 N   0  0  0  0  0  0  0  0  0  0  0  0
  1  2  1  0  0  0  0
  1  6  2  0  0  0  0
  2  3  2  0  0  0  0
  3  4  1  0  0  0  0
  4  5  1  0  0  0  0
  4 10  2  0  0  0  0
  5  6  1  0  0  0  0
  5  7  2  0  0  0  0
  7  8  1  0  0  0  0
  7 15  1  0  0  0  0
  8  9  2  0  0  0  0
  8 14  1  0  0  0  0
  9 10  1  0  0  0  0
  9 11  1  0  0  0  0
 11 12  1  0  0  0  0
 12 13  1  0  0  0  0
 13 14  1  0  0  0  0
M  END
>  <n>
571

>  <SMILES>
n1c2c(CCCC2)c(N)c2c1cccc2

>  <IC50>
>1000

>  <Class>
0

>  <NAME>
TACRINE

>  <INCHI_KEY>
YLJREFDVOIBQDA-UHFFFAOYSA-N

>  <Reference>
Mitigating, Dawson

$$$$
TALNIFLUMATE
  MOE2013           2D

 30 33  0  0  1  0  0  0  0  0999 V2000
    2.5980    1.5000    0.0000 C   0  0  0  0  0  0  0  0  0  0  0  0
    2.5980    0.0000    0.0000 C   0  0  0  0  0  0  0  0  0  0  0  0
    1.2990   -0.7500    0.0000 C   0  0  0  0  0  0  0  0  0  0  0  0
    0.0000    0.0000    0.0000 C   0  0  0  0  0  0  0  0  0  0  0  0
    0.0000    1.5000    0.0000 C   0  0  0  0  0  0  0  0  0  0  0  0
    1.2990    2.2500    0.0000 C   0  0  0  0  0  0  0  0  0  0  0  0
   -1.4270    1.9640    0.0000 C   0  0  3  0  0  0  0  0  0  0  0  0
   -2.3080    0.7500    0.0000 O   0  0  0  0  0  0  0  0  0  0  0  0
   -1.4270   -0.4640    0.0000 C   0  0  0  0  0  0  0  0  0  0  0  0
   -1.8900   -1.8900    0.0000 O   0  0  0  0  0  0  0  0  0  0  0  0
   -1.8900    3.3900    0.0000 O   0  0  0  0  0  0  0  0  0  0  0  0
   -3.3570    3.7020    0.0000 C   0  0  0  0  0  0  0  0  0  0  0  0
   -4.3610    2.5870    0.0000 O   0  0  0  0  0  0  0  0  0  0  0  0
   -3.8210    5.1290    0.0000 C   0  0  0  0  0  0  0  0  0  0  0  0
   -2.8170    6.2430    0.0000 C   0  0  0  0  0  0  0  0  0  0  0  0
   -3.2810    7.6700    0.0000 C   0  0  0  0  0  0  0  0  0  0  0  0
   -4.7480    7.9820    0.0000 C   0  0  0  0  0  0  0  0  0  0  0  0
   -5.7520    6.8670    0.0000 N   0  0  0  0  0  0  0  0  0  0  0  0
   -5.2880    5.4400    0.0000 C   0  0  0  0  0  0  0  0  0  0  0  0
   -6.2920    4.3260    0.0000 N   0  0  0  0  0  0  0  0  0  0  0  0
   -7.7590    4.6380    0.0000 C   0  0  0  0  0  0  0  0  0  0  0  0
   -8.2220    6.0640    0.0000 C   0  0  0  0  0  0  0  0  0  0  0  0
   -9.6900    6.3760    0.0000 C   0  0  0  0  0  0  0  0  0  0  0  0
  -10.6930    5.2610    0.0000 C   0  0  0  0  0  0  0  0  0  0  0  0
  -10.2300    3.8350    0.0000 C   0  0  0  0  0  0  0  0  0  0  0  0
   -8.7630    3.5230    0.0000 C   0  0  0  0  0  0  0  0  0  0  0  0
  -11.2340    2.7200    0.0000 C   0  0  0  0  0  0  0  0  0  0  0  0
  -12.7010    3.0320    0.0000 F   0  0  0  0  0  0  0  0  0  0  0  0
  -11.7960    1.3290    0.0000 F   0  0  0  0  0  0  0  0  0  0  0  0
   -9.9620    1.9250    0.0000 F   0  0  0  0  0  0  0  0  0  0  0  0
  1  2  1  0  0  0  0
  1  6  2  0  0  0  0
  2  3  2  0  0  0  0
  3  4  1  0  0  0  0
  4  5  2  0  0  0  0
  4  9  1  0  0  0  0
  5  6  1  0  0  0  0
  5  7  1  0  0  0  0
  7  8  1  0  0  0  0
  7 11  1  0  0  0  0
  8  9  1  0  0  0  0
  9 10  2  0  0  0  0
 11 12  1  0  0  0  0
 12 13  2  0  0  0  0
 12 14  1  0  0  0  0
 14 15  1  0  0  0  0
 14 19  2  0  0  0  0
 15 16  2  0  0  0  0
 16 17  1  0  0  0  0
 17 18  2  0  0  0  0
 18 19  1  0  0  0  0
 19 20  1  0  0  0  0
 20 21  1  0  0  0  0
 21 22  1  0  0  0  0
 21 26  2  0  0  0  0
 22 23  2  0  0  0  0
 23 24  1  0  0  0  0
 24 25  2  0  0  0  0
 25 26  1  0  0  0  0
 25 27  1  0  0  0  0
 27 28  1  0  0  0  0
 27 29  1  0  0  0  0
 27 30  1  0  0  0  0
M  END
>  <n>
572

>  <SMILES>
FC(F)(F)c1cc(Nc2ncccc2C(OC2OC(=O)c3c2cccc3)=O)ccc1

>  <IC50>
>1000

>  <Class>
0

>  <NAME>
TALNIFLUMATE

>  <INCHI_KEY>
ANMLJLFWUCQGKZ-UHFFFAOYSA-N

>  <Reference>
Mitigating the inhibition of human Bile Salt Export Pump by drugs_ opportunities provided by physicochemical property modulation,  in-silico modeling and structural modification_SI

$$$$
TAMOXIFEN
  MOE2013           2D

 28 30  0  0  0  0  0  0  0  0999 V2000
    2.5980   -4.5000    0.0000 C   0  0  0  0  0  0  0  0  0  0  0  0
    2.5980   -3.0000    0.0000 C   0  0  0  0  0  0  0  0  0  0  0  0
    1.2990   -2.2500    0.0000 C   0  0  0  0  0  0  0  0  0  0  0  0
    1.2990   -0.7500    0.0000 C   0  0  0  0  0  0  0  0  0  0  0  0
    2.5980    0.0000    0.0000 C   0  0  0  0  0  0  0  0  0  0  0  0
    3.8970   -0.7500    0.0000 C   0  0  0  0  0  0  0  0  0  0  0  0
    5.1960    0.0000    0.0000 C   0  0  0  0  0  0  0  0  0  0  0  0
    5.1960    1.5000    0.0000 C   0  0  0  0  0  0  0  0  0  0  0  0
    3.8970    2.2500    0.0000 C   0  0  0  0  0  0  0  0  0  0  0  0
    2.5980    1.5000    0.0000 C   0  0  0  0  0  0  0  0  0  0  0  0
    0.0000    0.0000    0.0000 C   0  0  0  0  0  0  0  0  0  0  0  0
    0.0000    1.5000    0.0000 C   0  0  0  0  0  0  0  0  0  0  0  0
   -1.2990    2.2500    0.0000 C   0  0  0  0  0  0  0  0  0  0  0  0
   -2.5980    1.5000    0.0000 C   0  0  0  0  0  0  0  0  0  0  0  0
   -2.5980    0.0000    0.0000 C   0  0  0  0  0  0  0  0  0  0  0  0
   -1.2990   -0.7500    0.0000 C   0  0  0  0  0  0  0  0  0  0  0  0
   -3.8970    2.2500    0.0000 O   0  0  0  0  0  0  0  0  0  0  0  0
   -5.1960    1.5000    0.0000 C   0  0  0  0  0  0  0  0  0  0  0  0
   -6.4950    2.2500    0.0000 C   0  0  0  0  0  0  0  0  0  0  0  0
   -7.7940    1.5000    0.0000 N   0  0  0  0  0  0  0  0  0  0  0  0
   -9.0930    2.2500    0.0000 C   0  0  0  0  0  0  0  0  0  0  0  0
   -7.7940    0.0000    0.0000 C   0  0  0  0  0  0  0  0  0  0  0  0
    0.0000   -3.0000    0.0000 C   0  0  0  0  0  0  0  0  0  0  0  0
   -1.2990   -2.2500    0.0000 C   0  0  0  0  0  0  0  0  0  0  0  0
   -2.5980   -3.0000    0.0000 C   0  0  0  0  0  0  0  0  0  0  0  0
   -2.5980   -4.5000    0.0000 C   0  0  0  0  0  0  0  0  0  0  0  0
   -1.2990   -5.2500    0.0000 C   0  0  0  0  0  0  0  0  0  0  0  0
    0.0000   -4.5000    0.0000 C   0  0  0  0  0  0  0  0  0  0  0  0
  1  2  1  0  0  0  0
  2  3  1  0  0  0  0
  3  4  2  0  0  0  0
  3 23  1  0  0  0  0
  4  5  1  0  0  0  0
  4 11  1  0  0  0  0
  5  6  1  0  0  0  0
  5 10  2  0  0  0  0
  6  7  2  0  0  0  0
  7  8  1  0  0  0  0
  8  9  2  0  0  0  0
  9 10  1  0  0  0  0
 11 12  1  0  0  0  0
 11 16  2  0  0  0  0
 12 13  2  0  0  0  0
 13 14  1  0  0  0  0
 14 15  2  0  0  0  0
 14 17  1  0  0  0  0
 15 16  1  0  0  0  0
 17 18  1  0  0  0  0
 18 19  1  0  0  0  0
 19 20  1  0  0  0  0
 20 21  1  0  0  0  0
 20 22  1  0  0  0  0
 23 24  1  0  0  0  0
 23 28  2  0  0  0  0
 24 25  2  0  0  0  0
 25 26  1  0  0  0  0
 26 27  2  0  0  0  0
 27 28  1  0  0  0  0
M  END
>  <n>
573

>  <SMILES>
O(CCN(C)C)c1ccc(cc1)\C(=C(\CC)/c1ccccc1)\c1ccccc1

>  <IC50>
<10

>  <Class>
1

>  <NAME>
TAMOXIFEN

>  <INCHI_KEY>
NKANXQFJJICGDU-QPLCGJKRSA-N

>  <Reference>
Mitigating the inhibition of human Bile Salt Export Pump by drugs_ opportunities provided by physicochemical property modulation,  in-silico modeling and structural modification_SI

$$$$
TELENZEPINE
  MOE2013           2D

 26 29  0  0  0  0  0  0  0  0999 V2000
    1.8900   -1.8900    0.0000 C   0  0  0  0  0  0  0  0  0  0  0  0
    1.4270   -0.4640    0.0000 C   0  0  0  0  0  0  0  0  0  0  0  0
    0.0000    0.0000    0.0000 C   0  0  0  0  0  0  0  0  0  0  0  0
    0.0000    1.5000    0.0000 C   0  0  0  0  0  0  0  0  0  0  0  0
    1.4270    1.9640    0.0000 C   0  0  0  0  0  0  0  0  0  0  0  0
    2.3080    0.7500    0.0000 S   0  0  0  0  0  0  0  0  0  0  0  0
   -1.1730    2.4350    0.0000 C   0  0  0  0  0  0  0  0  0  0  0  0
   -0.8390    3.8980    0.0000 O   0  0  0  0  0  0  0  0  0  0  0  0
   -2.6350    2.1020    0.0000 N   0  0  0  0  0  0  0  0  0  0  0  0
   -3.2860    0.7500    0.0000 C   0  0  0  0  0  0  0  0  0  0  0  0
   -4.7820    0.8620    0.0000 C   0  0  0  0  0  0  0  0  0  0  0  0
   -5.6270   -0.3770    0.0000 C   0  0  0  0  0  0  0  0  0  0  0  0
   -4.9760   -1.7290    0.0000 C   0  0  0  0  0  0  0  0  0  0  0  0
   -3.4800   -1.8410    0.0000 C   0  0  0  0  0  0  0  0  0  0  0  0
   -2.6350   -0.6020    0.0000 C   0  0  0  0  0  0  0  0  0  0  0  0
   -1.1730   -0.9350    0.0000 N   0  0  0  0  0  0  0  0  0  0  0  0
   -0.8390   -2.3980    0.0000 C   0  0  0  0  0  0  0  0  0  0  0  0
    0.5940   -2.8400    0.0000 O   0  0  0  0  0  0  0  0  0  0  0  0
   -1.9380   -3.4180    0.0000 C   0  0  0  0  0  0  0  0  0  0  0  0
   -1.6050   -4.8800    0.0000 N   0  0  0  0  0  0  0  0  0  0  0  0
   -2.7040   -5.9000    0.0000 C   0  0  0  0  0  0  0  0  0  0  0  0
   -2.3710   -7.3630    0.0000 C   0  0  0  0  0  0  0  0  0  0  0  0
   -0.9370   -7.8050    0.0000 N   0  0  0  0  0  0  0  0  0  0  0  0
    0.1620   -6.7850    0.0000 C   0  0  0  0  0  0  0  0  0  0  0  0
   -0.1710   -5.3220    0.0000 C   0  0  0  0  0  0  0  0  0  0  0  0
   -0.6030   -9.2680    0.0000 C   0  0  0  0  0  0  0  0  0  0  0  0
  1  2  1  0  0  0  0
  2  3  2  0  0  0  0
  2  6  1  0  0  0  0
  3  4  1  0  0  0  0
  3 16  1  0  0  0  0
  4  5  2  0  0  0  0
  4  7  1  0  0  0  0
  5  6  1  0  0  0  0
  7  8  2  0  0  0  0
  7  9  1  0  0  0  0
  9 10  1  0  0  0  0
 10 11  1  0  0  0  0
 10 15  2  0  0  0  0
 11 12  2  0  0  0  0
 12 13  1  0  0  0  0
 13 14  2  0  0  0  0
 14 15  1  0  0  0  0
 15 16  1  0  0  0  0
 16 17  1  0  0  0  0
 17 18  2  0  0  0  0
 17 19  1  0  0  0  0
 19 20  1  0  0  0  0
 20 21  1  0  0  0  0
 20 25  1  0  0  0  0
 21 22  1  0  0  0  0
 22 23  1  0  0  0  0
 23 24  1  0  0  0  0
 23 26  1  0  0  0  0
 24 25  1  0  0  0  0
M  END
>  <n>
574

>  <SMILES>
s1cc2c(N(c3c(NC2=O)cccc3)C(=O)CN2CCN(CC2)C)c1C

>  <IC50>
315.3

>  <Class>
0

>  <NAME>
TELENZEPINE

>  <INCHI_KEY>
VSWPGAIWKHPTKX-UHFFFAOYSA-N

>  <Reference>
Mitigating the inhibition of human Bile Salt Export Pump by drugs_ opportunities provided by physicochemical property modulation,  in-silico modeling and structural modification_SI

$$$$
Telithromycin
  MOE2013           2D

 58 62  0  0  1  0  0  0  0  0999 V2000
    0.0000    0.0000    0.0000 C   0  0  3  0  0  0  0  0  0  0  0  0
    0.0000    1.5000    0.0000 N   0  0  0  0  0  0  0  0  0  0  0  0
   -1.4270    1.9640    0.0000 C   0  0  0  0  0  0  0  0  0  0  0  0
   -2.3080    0.7500    0.0000 O   0  0  0  0  0  0  0  0  0  0  0  0
   -1.4270   -0.4640    0.0000 C   0  0  3  0  0  0  0  0  0  0  0  0
   -2.5110   -1.5000    0.0000 C   0  0  3  0  0  0  0  0  0  0  0  0
   -3.0380   -2.9040    0.0000 O   0  0  0  0  0  0  0  0  0  0  0  0
   -2.9030   -4.3980    0.0000 C   0  0  0  0  0  0  0  0  0  0  0  0
   -4.3300   -4.8620    0.0000 O   0  0  0  0  0  0  0  0  0  0  0  0
   -2.1340   -5.6860    0.0000 C   0  0  3  0  0  0  0  0  0  0  0  0
   -0.8820   -6.5120    0.0000 C   0  0  0  0  0  0  0  0  0  0  0  0
   -1.4090   -7.9170    0.0000 O   0  0  0  0  0  0  0  0  0  0  0  0
    0.6040   -6.7140    0.0000 C   0  0  3  0  0  0  0  0  0  0  0  0
    2.0310   -6.2500    0.0000 C   0  0  3  0  0  0  0  0  0  0  0  0
    2.8000   -7.5380    0.0000 O   0  0  0  0  0  0  0  0  0  0  0  0
    2.0700   -8.8480    0.0000 C   0  0  3  0  0  0  0  0  0  0  0  0
    0.5700   -8.8700    0.0000 O   0  0  0  0  0  0  0  0  0  0  0  0
   -0.1610  -10.1810    0.0000 C   0  0  3  0  0  0  0  0  0  0  0  0
    0.6090  -11.4680    0.0000 C   0  0  0  0  0  0  0  0  0  0  0  0
    2.1090  -11.4460    0.0000 C   0  0  3  0  0  0  0  0  0  0  0  0
    2.8780  -12.7340    0.0000 N   0  0  0  0  0  0  0  0  0  0  0  0
    2.1470  -14.0440    0.0000 C   0  0  0  0  0  0  0  0  0  0  0  0
    4.3780  -12.7110    0.0000 C   0  0  0  0  0  0  0  0  0  0  0  0
    2.8390  -10.1360    0.0000 C   0  0  3  0  0  0  0  0  0  0  0  0
    4.3390  -10.1130    0.0000 O   0  0  0  0  0  0  0  0  0  0  0  0
   -1.6600  -10.2030    0.0000 C   0  0  0  0  0  0  0  0  0  0  0  0
    3.1150   -5.2140    0.0000 C   0  0  3  0  0  0  0  0  0  0  0  0
    3.6840   -6.6020    0.0000 O   0  0  0  0  0  0  0  0  0  0  0  0
    5.1700   -6.8030    0.0000 C   0  0  0  0  0  0  0  0  0  0  0  0
    3.6420   -3.8090    0.0000 C   0  0  0  0  0  0  0  0  0  0  0  0
    3.5080   -2.3150    0.0000 C   0  0  3  0  0  0  0  0  0  0  0  0
    2.7380   -1.0280    0.0000 C   0  0  0  0  0  0  0  0  0  0  0  0
    3.8220    0.0090    0.0000 O   0  0  0  0  0  0  0  0  0  0  0  0
    1.4860   -0.2010    0.0000 C   0  0  3  0  0  0  0  0  0  0  0  0
    2.0140    1.2030    0.0000 C   0  0  0  0  0  0  0  0  0  0  0  0
    4.9340   -1.8520    0.0000 C   0  0  0  0  0  0  0  0  0  0  0  0
    4.6150   -5.1910    0.0000 C   0  0  0  0  0  0  0  0  0  0  0  0
    0.7390   -8.2080    0.0000 C   0  0  0  0  0  0  0  0  0  0  0  0
   -3.2180   -6.7230    0.0000 C   0  0  0  0  0  0  0  0  0  0  0  0
   -3.7630   -0.6740    0.0000 C   0  0  0  0  0  0  0  0  0  0  0  0
   -3.6730    0.8240    0.0000 C   0  0  0  0  0  0  0  0  0  0  0  0
   -2.9200   -0.3290    0.0000 C   0  0  0  0  0  0  0  0  0  0  0  0
   -1.8900    3.3900    0.0000 O   0  0  0  0  0  0  0  0  0  0  0  0
    1.2140    2.3820    0.0000 C   0  0  0  0  0  0  0  0  0  0  0  0
    1.0570    3.8740    0.0000 C   0  0  0  0  0  0  0  0  0  0  0  0
    2.2700    4.7550    0.0000 C   0  0  0  0  0  0  0  0  0  0  0  0
    2.1140    6.2470    0.0000 C   0  0  0  0  0  0  0  0  0  0  0  0
    3.3270    7.1290    0.0000 N   0  0  0  0  0  0  0  0  0  0  0  0
    4.7540    6.6650    0.0000 C   0  0  0  0  0  0  0  0  0  0  0  0
    5.6350    7.8790    0.0000 C   0  0  0  0  0  0  0  0  0  0  0  0
    4.7540    9.0920    0.0000 N   0  0  0  0  0  0  0  0  0  0  0  0
    3.3270    8.6290    0.0000 C   0  0  0  0  0  0  0  0  0  0  0  0
    7.1350    7.8790    0.0000 C   0  0  0  0  0  0  0  0  0  0  0  0
    7.8850    6.5800    0.0000 C   0  0  0  0  0  0  0  0  0  0  0  0
    9.3850    6.5800    0.0000 N   0  0  0  0  0  0  0  0  0  0  0  0
   10.1350    7.8790    0.0000 C   0  0  0  0  0  0  0  0  0  0  0  0
    9.3850    9.1780    0.0000 C   0  0  0  0  0  0  0  0  0  0  0  0
    7.8850    9.1780    0.0000 C   0  0  0  0  0  0  0  0  0  0  0  0
  1  2  1  0  0  0  0
  1  5  1  0  0  0  0
  1 34  1  0  0  0  0
  2  3  1  0  0  0  0
  2 44  1  0  0  0  0
  3  4  1  0  0  0  0
  3 43  2  0  0  0  0
  4  5  1  0  0  0  0
  5  6  1  0  0  0  0
  5 42  1  0  0  0  0
  6  7  1  0  0  0  0
  6 40  1  0  0  0  0
  7  8  1  0  0  0  0
  8  9  2  0  0  0  0
  8 10  1  0  0  0  0
 10 11  1  0  0  0  0
 10 39  1  0  0  0  0
 11 12  2  0  0  0  0
 11 13  1  0  0  0  0
 13 14  1  0  0  0  0
 13 38  1  0  0  0  0
 14 15  1  0  0  0  0
 14 27  1  0  0  0  0
 15 16  1  0  0  0  0
 16 17  1  0  0  0  0
 16 24  1  0  0  0  0
 17 18  1  0  0  0  0
 18 19  1  0  0  0  0
 18 26  1  0  0  0  0
 19 20  1  0  0  0  0
 20 21  1  0  0  0  0
 20 24  1  0  0  0  0
 21 22  1  0  0  0  0
 21 23  1  0  0  0  0
 24 25  1  0  0  0  0
 27 28  1  0  0  0  0
 27 30  1  0  0  0  0
 27 37  1  0  0  0  0
 28 29  1  0  0  0  0
 30 31  1  0  0  0  0
 31 32  1  0  0  0  0
 31 36  1  0  0  0  0
 32 33  2  0  0  0  0
 32 34  1  0  0  0  0
 34 35  1  0  0  0  0
 40 41  1  0  0  0  0
 44 45  1  0  0  0  0
 45 46  1  0  0  0  0
 46 47  1  0  0  0  0
 47 48  1  0  0  0  0
 48 49  1  0  0  0  0
 48 52  1  0  0  0  0
 49 50  2  0  0  0  0
 50 51  1  0  0  0  0
 50 53  1  0  0  0  0
 51 52  2  0  0  0  0
 53 54  1  0  0  0  0
 53 58  2  0  0  0  0
 54 55  2  0  0  0  0
 55 56  1  0  0  0  0
 56 57  2  0  0  0  0
 57 58  1  0  0  0  0
M  END
>  <n>
30

>  <IC50>
4.0

>  <Class>
1

>  <NAME>
TELITHROMYCIN

>  <INCHI_KEY>
LJVAJPDWBABPEJ-MMEUOAQYSA-N

>  <Reference>
Interference

$$$$
TETRACAINE
  MOE2013           2D

 19 19  0  0  0  0  0  0  0  0999 V2000
    3.8970   -5.2500    0.0000 C   0  0  0  0  0  0  0  0  0  0  0  0
    2.5980   -4.5000    0.0000 C   0  0  0  0  0  0  0  0  0  0  0  0
    2.5980   -3.0000    0.0000 C   0  0  0  0  0  0  0  0  0  0  0  0
    1.2990   -2.2500    0.0000 C   0  0  0  0  0  0  0  0  0  0  0  0
    1.2990   -0.7500    0.0000 N   0  0  0  0  0  0  0  0  0  0  0  0
    0.0000    0.0000    0.0000 C   0  0  0  0  0  0  0  0  0  0  0  0
    0.0000    1.5000    0.0000 C   0  0  0  0  0  0  0  0  0  0  0  0
   -1.2990    2.2500    0.0000 C   0  0  0  0  0  0  0  0  0  0  0  0
   -2.5980    1.5000    0.0000 C   0  0  0  0  0  0  0  0  0  0  0  0
   -2.5980    0.0000    0.0000 C   0  0  0  0  0  0  0  0  0  0  0  0
   -1.2990   -0.7500    0.0000 C   0  0  0  0  0  0  0  0  0  0  0  0
   -3.8970    2.2500    0.0000 C   0  0  0  0  0  0  0  0  0  0  0  0
   -5.1960    1.5000    0.0000 O   0  0  0  0  0  0  0  0  0  0  0  0
   -3.8970    3.7500    0.0000 O   0  0  0  0  0  0  0  0  0  0  0  0
   -5.1960    4.5000    0.0000 C   0  0  0  0  0  0  0  0  0  0  0  0
   -5.1960    6.0000    0.0000 C   0  0  0  0  0  0  0  0  0  0  0  0
   -6.4950    6.7500    0.0000 N   0  0  0  0  0  0  0  0  0  0  0  0
   -6.4950    8.2500    0.0000 C   0  0  0  0  0  0  0  0  0  0  0  0
   -7.7940    6.0000    0.0000 C   0  0  0  0  0  0  0  0  0  0  0  0
  1  2  1  0  0  0  0
  2  3  1  0  0  0  0
  3  4  1  0  0  0  0
  4  5  1  0  0  0  0
  5  6  1  0  0  0  0
  6  7  1  0  0  0  0
  6 11  2  0  0  0  0
  7  8  2  0  0  0  0
  8  9  1  0  0  0  0
  9 10  2  0  0  0  0
  9 12  1  0  0  0  0
 10 11  1  0  0  0  0
 12 13  2  0  0  0  0
 12 14  1  0  0  0  0
 14 15  1  0  0  0  0
 15 16  1  0  0  0  0
 16 17  1  0  0  0  0
 17 18  1  0  0  0  0
 17 19  1  0  0  0  0
M  END
>  <n>
576

>  <SMILES>
O(C(=O)c1ccc(NCCCC)cc1)CCN(C)C

>  <IC50>
512.9

>  <Class>
0

>  <NAME>
TETRACAINE

>  <INCHI_KEY>
GKCBAIGFKIBETG-UHFFFAOYSA-N

>  <Reference>
Mitigating the inhibition of human Bile Salt Export Pump by drugs_ opportunities provided by physicochemical property modulation,  in-silico modeling and structural modification_SI

$$$$
TETROQUINONE
  MOE2013           2D

 12 12  0  0  0  0  0  0  0  0999 V2000
    0.0000    0.0000    0.0000 C   0  0  0  0  0  0  0  0  0  0  0  0
    0.0000    1.5000    0.0000 C   0  0  0  0  0  0  0  0  0  0  0  0
   -1.2990    2.2500    0.0000 C   0  0  0  0  0  0  0  0  0  0  0  0
   -1.2990    3.7500    0.0000 O   0  0  0  0  0  0  0  0  0  0  0  0
   -2.5980    1.5000    0.0000 C   0  0  0  0  0  0  0  0  0  0  0  0
   -2.5980    0.0000    0.0000 C   0  0  0  0  0  0  0  0  0  0  0  0
   -1.2990   -0.7500    0.0000 C   0  0  0  0  0  0  0  0  0  0  0  0
   -1.2990   -2.2500    0.0000 O   0  0  0  0  0  0  0  0  0  0  0  0
   -3.8970   -0.7500    0.0000 O   0  0  0  0  0  0  0  0  0  0  0  0
   -3.8970    2.2500    0.0000 O   0  0  0  0  0  0  0  0  0  0  0  0
    1.2990    2.2500    0.0000 O   0  0  0  0  0  0  0  0  0  0  0  0
    1.2990   -0.7500    0.0000 O   0  0  0  0  0  0  0  0  0  0  0  0
  1  2  2  0  0  0  0
  1  7  1  0  0  0  0
  1 12  1  0  0  0  0
  2  3  1  0  0  0  0
  2 11  1  0  0  0  0
  3  4  2  0  0  0  0
  3  5  1  0  0  0  0
  5  6  2  0  0  0  0
  5 10  1  0  0  0  0
  6  7  1  0  0  0  0
  6  9  1  0  0  0  0
  7  8  2  0  0  0  0
M  END
>  <n>
577

>  <SMILES>
OC=1C(=O)C(O)=C(O)C(=O)C=1O

>  <IC50>
>1000

>  <Class>
0

>  <NAME>
TETROQUINONE

>  <INCHI_KEY>
DGQOCLATAPFASR-UHFFFAOYSA-N

>  <Reference>
Mitigating the inhibition of human Bile Salt Export Pump by drugs_ opportunities provided by physicochemical property modulation,  in-silico modeling and structural modification_SI

$$$$
THALIDOMIDE
  MOE2013           2D

 19 21  0  0  1  0  0  0  0  0999 V2000
    2.5980    1.5000    0.0000 C   0  0  0  0  0  0  0  0  0  0  0  0
    2.5980    0.0000    0.0000 C   0  0  0  0  0  0  0  0  0  0  0  0
    1.2990   -0.7500    0.0000 C   0  0  0  0  0  0  0  0  0  0  0  0
    0.0000    0.0000    0.0000 C   0  0  0  0  0  0  0  0  0  0  0  0
    0.0000    1.5000    0.0000 C   0  0  0  0  0  0  0  0  0  0  0  0
    1.2990    2.2500    0.0000 C   0  0  0  0  0  0  0  0  0  0  0  0
   -1.4270    1.9640    0.0000 C   0  0  0  0  0  0  0  0  0  0  0  0
   -1.8900    3.3900    0.0000 O   0  0  0  0  0  0  0  0  0  0  0  0
   -2.3080    0.7500    0.0000 N   0  0  0  0  0  0  0  0  0  0  0  0
   -1.4270   -0.4640    0.0000 C   0  0  0  0  0  0  0  0  0  0  0  0
   -1.8900   -1.8900    0.0000 O   0  0  0  0  0  0  0  0  0  0  0  0
   -3.8080    0.7500    0.0000 C   0  0  3  0  0  0  0  0  0  0  0  0
   -4.5580    2.0490    0.0000 C   0  0  0  0  0  0  0  0  0  0  0  0
   -6.0580    2.0490    0.0000 C   0  0  0  0  0  0  0  0  0  0  0  0
   -6.8080    0.7500    0.0000 C   0  0  0  0  0  0  0  0  0  0  0  0
   -8.3080    0.7500    0.0000 O   0  0  0  0  0  0  0  0  0  0  0  0
   -6.0580   -0.5490    0.0000 N   0  0  0  0  0  0  0  0  0  0  0  0
   -4.5580   -0.5490    0.0000 C   0  0  0  0  0  0  0  0  0  0  0  0
   -3.8080   -1.8480    0.0000 O   0  0  0  0  0  0  0  0  0  0  0  0
  1  2  1  0  0  0  0
  1  6  2  0  0  0  0
  2  3  2  0  0  0  0
  3  4  1  0  0  0  0
  4  5  2  0  0  0  0
  4 10  1  0  0  0  0
  5  6  1  0  0  0  0
  5  7  1  0  0  0  0
  7  8  2  0  0  0  0
  7  9  1  0  0  0  0
  9 10  1  0  0  0  0
  9 12  1  0  0  0  0
 10 11  2  0  0  0  0
 12 13  1  0  0  0  0
 12 18  1  0  0  0  0
 13 14  1  0  0  0  0
 14 15  1  0  0  0  0
 15 16  2  0  0  0  0
 15 17  1  0  0  0  0
 17 18  1  0  0  0  0
 18 19  2  0  0  0  0
M  END
>  <n>
578

>  <SMILES>
O=C1NC(=O)CCC1N1C(=O)c2c(cccc2)C1=O

>  <IC50>
>1000

>  <Class>
0

>  <NAME>
THALIDOMIDE

>  <INCHI_KEY>
UEJJHQNACJXSKW-UHFFFAOYSA-N

>  <Reference>
Mitigating the inhibition of human Bile Salt Export Pump by drugs_ opportunities provided by physicochemical property modulation,  in-silico modeling and structural modification_SI

$$$$
THIABENDAZOLE
  MOE2013           2D

 14 16  0  0  0  0  0  0  0  0999 V2000
    2.5980    1.5000    0.0000 C   0  0  0  0  0  0  0  0  0  0  0  0
    2.5980    0.0000    0.0000 C   0  0  0  0  0  0  0  0  0  0  0  0
    1.2990   -0.7500    0.0000 C   0  0  0  0  0  0  0  0  0  0  0  0
    0.0000    0.0000    0.0000 C   0  0  0  0  0  0  0  0  0  0  0  0
    0.0000    1.5000    0.0000 C   0  0  0  0  0  0  0  0  0  0  0  0
    1.2990    2.2500    0.0000 C   0  0  0  0  0  0  0  0  0  0  0  0
   -1.4270    1.9640    0.0000 N   0  0  0  0  0  0  0  0  0  0  0  0
   -2.3080    0.7500    0.0000 C   0  0  0  0  0  0  0  0  0  0  0  0
   -1.4270   -0.4640    0.0000 N   0  0  0  0  0  0  0  0  0  0  0  0
   -3.8080    0.7500    0.0000 C   0  0  0  0  0  0  0  0  0  0  0  0
   -4.6900    1.9640    0.0000 C   0  0  0  0  0  0  0  0  0  0  0  0
   -6.1160    1.5000    0.0000 S   0  0  0  0  0  0  0  0  0  0  0  0
   -6.1160    0.0000    0.0000 C   0  0  0  0  0  0  0  0  0  0  0  0
   -4.6900   -0.4640    0.0000 N   0  0  0  0  0  0  0  0  0  0  0  0
  1  2  1  0  0  0  0
  1  6  2  0  0  0  0
  2  3  2  0  0  0  0
  3  4  1  0  0  0  0
  4  5  2  0  0  0  0
  4  9  1  0  0  0  0
  5  6  1  0  0  0  0
  5  7  1  0  0  0  0
  7  8  1  0  0  0  0
  8  9  2  0  0  0  0
  8 10  1  0  0  0  0
 10 11  2  0  0  0  0
 10 14  1  0  0  0  0
 11 12  1  0  0  0  0
 12 13  1  0  0  0  0
 13 14  2  0  0  0  0
M  END
>  <n>
579

>  <SMILES>
s1cc(nc1)-c1[nH]c2c(n1)cccc2

>  <IC50>
560

>  <Class>
0

>  <NAME>
THIABENDAZOLE

>  <INCHI_KEY>
WJCNZQLZVWNLKY-UHFFFAOYSA-N

>  <Reference>
Mitigating the inhibition of human Bile Salt Export Pump by drugs_ opportunities provided by physicochemical property modulation,  in-silico modeling and structural modification_SI

$$$$
THIOTEPA
  MOE2013           2D

 11 13  0  0  0  0  0  0  0  0999 V2000
   -1.2990   -3.3480    0.0000 C   0  0  0  0  0  0  0  0  0  0  0  0
    0.0000   -4.0980    0.0000 C   0  0  0  0  0  0  0  0  0  0  0  0
    0.0000   -2.5980    0.0000 N   0  0  0  0  0  0  0  0  0  0  0  0
    0.7500   -1.2990    0.0000 P   0  0  0  0  0  0  0  0  0  0  0  0
    1.8990   -2.2630    0.0000 S   0  0  0  0  0  0  0  0  0  0  0  0
    1.8990   -0.3350    0.0000 N   0  0  0  0  0  0  0  0  0  0  0  0
    3.3760   -0.0740    0.0000 C   0  0  0  0  0  0  0  0  0  0  0  0
    2.4120    1.0750    0.0000 C   0  0  0  0  0  0  0  0  0  0  0  0
    0.0000    0.0000    0.0000 N   0  0  0  0  0  0  0  0  0  0  0  0
    0.0000    1.5000    0.0000 C   0  0  0  0  0  0  0  0  0  0  0  0
   -1.2990    0.7500    0.0000 C   0  0  0  0  0  0  0  0  0  0  0  0
  1  2  1  0  0  0  0
  1  3  1  0  0  0  0
  2  3  1  0  0  0  0
  3  4  1  0  0  0  0
  4  5  2  0  0  0  0
  4  6  1  0  0  0  0
  4  9  1  0  0  0  0
  6  7  1  0  0  0  0
  6  8  1  0  0  0  0
  7  8  1  0  0  0  0
  9 10  1  0  0  0  0
  9 11  1  0  0  0  0
 10 11  1  0  0  0  0
M  END
>  <n>
581

>  <SMILES>
S=P(N1CC1)(N1CC1)N1CC1

>  <IC50>
>1000

>  <Class>
0

>  <NAME>
THIOTEPA

>  <INCHI_KEY>
FOCVUCIESVLUNU-UHFFFAOYSA-N

>  <Reference>
Mitigating the inhibition of human Bile Salt Export Pump by drugs_ opportunities provided by physicochemical property modulation,  in-silico modeling and structural modification_SI

$$$$
TIPREDANE
  MOE2013           2D

 27 30  0  0  1  0  0  0  0  0999 V2000
    5.3240    2.7140    0.0000 C   0  0  0  0  0  0  0  0  0  0  0  0
    4.0250    1.9640    0.0000 C   0  0  0  0  0  0  0  0  0  0  0  0
    2.7260    2.7140    0.0000 S   0  0  0  0  0  0  0  0  0  0  0  0
    1.4270    1.9640    0.0000 C   0  0  2  0  0  0  0  0  0  0  0  0
    2.3080    0.7500    0.0000 C   0  0  0  0  0  0  0  0  0  0  0  0
    1.4270   -0.4640    0.0000 C   0  0  0  0  0  0  0  0  0  0  0  0
    0.0000    0.0000    0.0000 C   0  0  3  0  0  0  0  0  0  0  0  0
    0.0000    1.5000    0.0000 C   0  0  2  0  0  0  0  0  0  0  0  0
   -1.2990    2.2500    0.0000 C   0  0  0  0  0  0  0  0  0  0  0  0
   -2.5980    1.5000    0.0000 C   0  0  3  0  0  0  0  0  0  0  0  0
   -2.5980    0.0000    0.0000 C   0  0  1  0  0  0  0  0  0  0  0  0
   -1.2990   -0.7500    0.0000 C   0  0  3  0  0  0  0  0  0  0  0  0
   -1.2990   -2.2500    0.0000 C   0  0  0  0  0  0  0  0  0  0  0  0
   -2.5980   -3.0000    0.0000 C   0  0  0  0  0  0  0  0  0  0  0  0
   -3.8970   -2.2500    0.0000 C   0  0  0  0  0  0  0  0  0  0  0  0
   -5.1960   -3.0000    0.0000 C   0  0  0  0  0  0  0  0  0  0  0  0
   -6.4950   -2.2500    0.0000 C   0  0  0  0  0  0  0  0  0  0  0  0
   -7.7940   -3.0000    0.0000 O   0  0  0  0  0  0  0  0  0  0  0  0
   -6.4950   -0.7500    0.0000 C   0  0  0  0  0  0  0  0  0  0  0  0
   -5.1960    0.0000    0.0000 C   0  0  0  0  0  0  0  0  0  0  0  0
   -3.8970   -0.7500    0.0000 C   0  0  2  0  0  0  0  0  0  0  0  0
   -3.8970    0.7500    0.0000 C   0  0  0  0  0  0  0  0  0  0  0  0
   -3.8970    0.7500    0.0000 F   0  0  0  0  0  0  0  0  0  0  0  0
   -3.8970    2.2500    0.0000 O   0  0  0  0  0  0  0  0  0  0  0  0
    0.1570    2.9920    0.0000 C   0  0  0  0  0  0  0  0  0  0  0  0
    0.8160    3.3340    0.0000 S   0  0  0  0  0  0  0  0  0  0  0  0
    1.6980    4.5470    0.0000 C   0  0  0  0  0  0  0  0  0  0  0  0
  1  2  1  0  0  0  0
  2  3  1  0  0  0  0
  4  3  1  6  0  0  0
  4  5  1  0  0  0  0
  4  8  1  0  0  0  0
  4 26  1  1  0  0  0
  5  6  1  0  0  0  0
  6  7  1  0  0  0  0
  7  8  1  0  0  0  0
  7 12  1  0  0  0  0
  8  9  1  0  0  0  0
  8 25  1  1  0  0  0
  9 10  1  0  0  0  0
 10 11  1  0  0  0  0
 10 24  1  0  0  0  0
 11 12  1  0  0  0  0
 11 21  1  0  0  0  0
 11 23  1  6  0  0  0
 12 13  1  0  0  0  0
 13 14  1  0  0  0  0
 14 15  1  0  0  0  0
 15 16  2  0  0  0  0
 15 21  1  0  0  0  0
 16 17  1  0  0  0  0
 17 18  2  0  0  0  0
 17 19  1  0  0  0  0
 19 20  2  0  0  0  0
 20 21  1  0  0  0  0
 21 22  1  1  0  0  0
 26 27  1  0  0  0  0
M  END
>  <n>
584

>  <SMILES>
S(CC)[C@]1(SC)CC[C@H]2[C@@H]3CCC4=CC(=O)C=C[C@]4(C)[C@@]3(F)[C@@H](O)C[C@]12C

>  <IC50>
<10

>  <Class>
1

>  <NAME>
TIPREDANE

>  <INCHI_KEY>
DXEXNWDGDYUITL-FXSSSKFRSA-N

>  <Reference>
Mitigating the inhibition of human Bile Salt Export Pump by drugs_ opportunities provided by physicochemical property modulation,  in-silico modeling and structural modification_SI

$$$$
TOLAZAMIDE
  MOE2013           2D

 21 22  0  0  0  0  0  0  0  0999 V2000
    1.2990   -0.7500    0.0000 C   0  0  0  0  0  0  0  0  0  0  0  0
    0.0000    0.0000    0.0000 C   0  0  0  0  0  0  0  0  0  0  0  0
    0.0000    1.5000    0.0000 C   0  0  0  0  0  0  0  0  0  0  0  0
   -1.2990    2.2500    0.0000 C   0  0  0  0  0  0  0  0  0  0  0  0
   -2.5980    1.5000    0.0000 C   0  0  0  0  0  0  0  0  0  0  0  0
   -2.5980    0.0000    0.0000 C   0  0  0  0  0  0  0  0  0  0  0  0
   -1.2990   -0.7500    0.0000 C   0  0  0  0  0  0  0  0  0  0  0  0
   -3.8970    2.2500    0.0000 S   0  0  0  0  0  0  0  0  0  0  0  0
   -2.9330    3.3990    0.0000 O   0  0  0  0  0  0  0  0  0  0  0  0
   -4.8610    3.3990    0.0000 O   0  0  0  0  0  0  0  0  0  0  0  0
   -5.1960    1.5000    0.0000 N   0  0  0  0  0  0  0  0  0  0  0  0
   -6.4950    2.2500    0.0000 C   0  0  0  0  0  0  0  0  0  0  0  0
   -6.4950    3.7500    0.0000 O   0  0  0  0  0  0  0  0  0  0  0  0
   -7.7940    1.5000    0.0000 N   0  0  0  0  0  0  0  0  0  0  0  0
   -9.0930    2.2500    0.0000 N   0  0  0  0  0  0  0  0  0  0  0  0
   -8.9810    3.7460    0.0000 C   0  0  0  0  0  0  0  0  0  0  0  0
  -10.0810    4.7660    0.0000 C   0  0  0  0  0  0  0  0  0  0  0  0
  -11.5640    4.5420    0.0000 C   0  0  0  0  0  0  0  0  0  0  0  0
  -12.3140    3.2440    0.0000 C   0  0  0  0  0  0  0  0  0  0  0  0
  -11.7660    1.8470    0.0000 C   0  0  0  0  0  0  0  0  0  0  0  0
  -10.3330    1.4050    0.0000 C   0  0  0  0  0  0  0  0  0  0  0  0
  1  2  1  0  0  0  0
  2  3  1  0  0  0  0
  2  7  2  0  0  0  0
  3  4  2  0  0  0  0
  4  5  1  0  0  0  0
  5  6  2  0  0  0  0
  5  8  1  0  0  0  0
  6  7  1  0  0  0  0
  8  9  2  0  0  0  0
  8 10  2  0  0  0  0
  8 11  1  0  0  0  0
 11 12  1  0  0  0  0
 12 13  2  0  0  0  0
 12 14  1  0  0  0  0
 14 15  1  0  0  0  0
 15 16  1  0  0  0  0
 15 21  1  0  0  0  0
 16 17  1  0  0  0  0
 17 18  1  0  0  0  0
 18 19  1  0  0  0  0
 19 20  1  0  0  0  0
 20 21  1  0  0  0  0
M  END
>  <n>
585

>  <SMILES>
S(=O)(=O)(NC(=O)NN1CCCCCC1)c1ccc(cc1)C

>  <IC50>
285.7

>  <Class>
0

>  <NAME>
TOLAZAMIDE

>  <INCHI_KEY>
OUDSBRTVNLOZBN-UHFFFAOYSA-N

>  <Reference>
Mitigating the inhibition of human Bile Salt Export Pump by drugs_ opportunities provided by physicochemical property modulation,  in-silico modeling and structural modification_SI

$$$$
TOLAZOLINE
  MOE2013           2D

 12 13  0  0  0  0  0  0  0  0999 V2000
    5.3240    0.9490    0.0000 C   0  0  0  0  0  0  0  0  0  0  0  0
    4.1110    1.8300    0.0000 C   0  0  0  0  0  0  0  0  0  0  0  0
    2.7410    1.2200    0.0000 C   0  0  0  0  0  0  0  0  0  0  0  0
    2.5840   -0.2720    0.0000 C   0  0  0  0  0  0  0  0  0  0  0  0
    3.7970   -1.1530    0.0000 C   0  0  0  0  0  0  0  0  0  0  0  0
    5.1680   -0.5430    0.0000 C   0  0  0  0  0  0  0  0  0  0  0  0
    1.2140   -0.8820    0.0000 C   0  0  0  0  0  0  0  0  0  0  0  0
    0.0000    0.0000    0.0000 C   0  0  0  0  0  0  0  0  0  0  0  0
    0.0000    1.5000    0.0000 N   0  0  0  0  0  0  0  0  0  0  0  0
   -1.4270    1.9640    0.0000 C   0  0  0  0  0  0  0  0  0  0  0  0
   -2.3080    0.7500    0.0000 C   0  0  0  0  0  0  0  0  0  0  0  0
   -1.4270   -0.4640    0.0000 N   0  0  0  0  0  0  0  0  0  0  0  0
  1  2  1  0  0  0  0
  1  6  2  0  0  0  0
  2  3  2  0  0  0  0
  3  4  1  0  0  0  0
  4  5  2  0  0  0  0
  4  7  1  0  0  0  0
  5  6  1  0  0  0  0
  7  8  1  0  0  0  0
  8  9  2  0  0  0  0
  8 12  1  0  0  0  0
  9 10  1  0  0  0  0
 10 11  1  0  0  0  0
 11 12  1  0  0  0  0
M  END
>  <n>
586

>  <SMILES>
N1CCN=C1Cc1ccccc1

>  <IC50>
>1000

>  <Class>
0

>  <NAME>
TOLAZOLINE

>  <INCHI_KEY>
JIVZKJJQOZQXQB-UHFFFAOYSA-N

>  <Reference>
Mitigating the inhibition of human Bile Salt Export Pump by drugs_ opportunities provided by physicochemical property modulation,  in-silico modeling and structural modification_SI

$$$$
TOLBUTAMIDE
  MOE2013           2D

 18 18  0  0  0  0  0  0  0  0999 V2000
    5.1960   -9.0000    0.0000 C   0  0  0  0  0  0  0  0  0  0  0  0
    5.1960   -7.5000    0.0000 C   0  0  0  0  0  0  0  0  0  0  0  0
    3.8970   -6.7500    0.0000 C   0  0  0  0  0  0  0  0  0  0  0  0
    3.8970   -5.2500    0.0000 C   0  0  0  0  0  0  0  0  0  0  0  0
    2.5980   -4.5000    0.0000 N   0  0  0  0  0  0  0  0  0  0  0  0
    2.5980   -3.0000    0.0000 C   0  0  0  0  0  0  0  0  0  0  0  0
    3.8970   -2.2500    0.0000 O   0  0  0  0  0  0  0  0  0  0  0  0
    1.2990   -2.2500    0.0000 N   0  0  0  0  0  0  0  0  0  0  0  0
    1.2990   -0.7500    0.0000 S   0  0  0  0  0  0  0  0  0  0  0  0
    2.7760   -1.0100    0.0000 O   0  0  0  0  0  0  0  0  0  0  0  0
    1.8120    0.6600    0.0000 O   0  0  0  0  0  0  0  0  0  0  0  0
    0.0000    0.0000    0.0000 C   0  0  0  0  0  0  0  0  0  0  0  0
    0.0000    1.5000    0.0000 C   0  0  0  0  0  0  0  0  0  0  0  0
   -1.2990    2.2500    0.0000 C   0  0  0  0  0  0  0  0  0  0  0  0
   -2.5980    1.5000    0.0000 C   0  0  0  0  0  0  0  0  0  0  0  0
   -2.5980    0.0000    0.0000 C   0  0  0  0  0  0  0  0  0  0  0  0
   -1.2990   -0.7500    0.0000 C   0  0  0  0  0  0  0  0  0  0  0  0
   -3.8970    2.2500    0.0000 C   0  0  0  0  0  0  0  0  0  0  0  0
  1  2  1  0  0  0  0
  2  3  1  0  0  0  0
  3  4  1  0  0  0  0
  4  5  1  0  0  0  0
  5  6  1  0  0  0  0
  6  7  2  0  0  0  0
  6  8  1  0  0  0  0
  8  9  1  0  0  0  0
  9 10  2  0  0  0  0
  9 11  2  0  0  0  0
  9 12  1  0  0  0  0
 12 13  1  0  0  0  0
 12 17  2  0  0  0  0
 13 14  2  0  0  0  0
 14 15  1  0  0  0  0
 15 16  2  0  0  0  0
 15 18  1  0  0  0  0
 16 17  1  0  0  0  0
M  END
>  <n>
587

>  <SMILES>
S(=O)(=O)(NC(=O)NCCCC)c1ccc(cc1)C

>  <IC50>
>1000

>  <Class>
0

>  <NAME>
TOLBUTAMIDE

>  <INCHI_KEY>
JLRGJRBPOGGCBT-UHFFFAOYSA-N

>  <Reference>
Mitigating the inhibition of human Bile Salt Export Pump by drugs_ opportunities provided by physicochemical property modulation,  in-silico modeling and structural modification_SI

$$$$
TOLRESTAT
  MOE2013           2D

 24 25  0  0  0  0  0  0  0  0999 V2000
    2.5980    1.5000    0.0000 C   0  0  0  0  0  0  0  0  0  0  0  0
    2.5980    0.0000    0.0000 N   0  0  0  0  0  0  0  0  0  0  0  0
    3.8970   -0.7500    0.0000 C   0  0  0  0  0  0  0  0  0  0  0  0
    5.1960    0.0000    0.0000 C   0  0  0  0  0  0  0  0  0  0  0  0
    6.4950   -0.7500    0.0000 O   0  0  0  0  0  0  0  0  0  0  0  0
    5.1960    1.5000    0.0000 O   0  0  0  0  0  0  0  0  0  0  0  0
    1.2990   -0.7500    0.0000 C   0  0  0  0  0  0  0  0  0  0  0  0
    1.2990   -2.2500    0.0000 S   0  0  0  0  0  0  0  0  0  0  0  0
    0.0000    0.0000    0.0000 C   0  0  0  0  0  0  0  0  0  0  0  0
    0.0000    1.5000    0.0000 C   0  0  0  0  0  0  0  0  0  0  0  0
   -1.2990    2.2500    0.0000 C   0  0  0  0  0  0  0  0  0  0  0  0
   -2.5980    1.5000    0.0000 C   0  0  0  0  0  0  0  0  0  0  0  0
   -2.5980    0.0000    0.0000 C   0  0  0  0  0  0  0  0  0  0  0  0
   -1.2990   -0.7500    0.0000 C   0  0  0  0  0  0  0  0  0  0  0  0
   -1.2990   -2.2500    0.0000 C   0  0  0  0  0  0  0  0  0  0  0  0
   -2.5980   -3.0000    0.0000 C   0  0  0  0  0  0  0  0  0  0  0  0
   -3.8970   -2.2500    0.0000 C   0  0  0  0  0  0  0  0  0  0  0  0
   -3.8970   -0.7500    0.0000 C   0  0  0  0  0  0  0  0  0  0  0  0
   -5.1960    0.0000    0.0000 C   0  0  0  0  0  0  0  0  0  0  0  0
   -6.4950   -0.7500    0.0000 F   0  0  0  0  0  0  0  0  0  0  0  0
   -4.2320    1.1490    0.0000 F   0  0  0  0  0  0  0  0  0  0  0  0
   -6.1600    1.1490    0.0000 F   0  0  0  0  0  0  0  0  0  0  0  0
   -5.1960   -3.0000    0.0000 O   0  0  0  0  0  0  0  0  0  0  0  0
   -5.1960   -4.5000    0.0000 C   0  0  0  0  0  0  0  0  0  0  0  0
  1  2  1  0  0  0  0
  2  3  1  0  0  0  0
  2  7  1  0  0  0  0
  3  4  1  0  0  0  0
  4  5  2  0  0  0  0
  4  6  1  0  0  0  0
  7  8  2  0  0  0  0
  7  9  1  0  0  0  0
  9 10  2  0  0  0  0
  9 14  1  0  0  0  0
 10 11  1  0  0  0  0
 11 12  2  0  0  0  0
 12 13  1  0  0  0  0
 13 14  1  0  0  0  0
 13 18  2  0  0  0  0
 14 15  2  0  0  0  0
 15 16  1  0  0  0  0
 16 17  2  0  0  0  0
 17 18  1  0  0  0  0
 17 23  1  0  0  0  0
 18 19  1  0  0  0  0
 19 20  1  0  0  0  0
 19 21  1  0  0  0  0
 19 22  1  0  0  0  0
 23 24  1  0  0  0  0
M  END
>  <n>
590

>  <SMILES>
S=C(N(CC(O)=O)C)c1c2c(ccc1)c(C(F)(F)F)c(OC)cc2

>  <IC50>
185.3

>  <Class>
0

>  <NAME>
TOLRESTAT

>  <INCHI_KEY>
LUBHDINQXIHVLS-UHFFFAOYSA-N

>  <Reference>
Mitigating the inhibition of human Bile Salt Export Pump by drugs_ opportunities provided by physicochemical property modulation,  in-silico modeling and structural modification_SI

$$$$
TORSEMIDE
  MOE2013           2D

 24 25  0  0  0  0  0  0  0  0999 V2000
    1.2990   -0.7500    0.0000 C   0  0  0  0  0  0  0  0  0  0  0  0
    0.0000    0.0000    0.0000 C   0  0  0  0  0  0  0  0  0  0  0  0
    0.0000    1.5000    0.0000 C   0  0  0  0  0  0  0  0  0  0  0  0
   -1.2990    2.2500    0.0000 C   0  0  0  0  0  0  0  0  0  0  0  0
   -2.5980    1.5000    0.0000 C   0  0  0  0  0  0  0  0  0  0  0  0
   -2.5980    0.0000    0.0000 C   0  0  0  0  0  0  0  0  0  0  0  0
   -1.2990   -0.7500    0.0000 C   0  0  0  0  0  0  0  0  0  0  0  0
   -3.8970   -0.7500    0.0000 N   0  0  0  0  0  0  0  0  0  0  0  0
   -5.1960    0.0000    0.0000 C   0  0  0  0  0  0  0  0  0  0  0  0
   -5.1960    1.5000    0.0000 C   0  0  0  0  0  0  0  0  0  0  0  0
   -6.4950    2.2500    0.0000 C   0  0  0  0  0  0  0  0  0  0  0  0
   -7.7940    1.5000    0.0000 N   0  0  0  0  0  0  0  0  0  0  0  0
   -7.7940    0.0000    0.0000 C   0  0  0  0  0  0  0  0  0  0  0  0
   -6.4950   -0.7500    0.0000 C   0  0  0  0  0  0  0  0  0  0  0  0
   -6.4950   -2.2500    0.0000 S   0  0  0  0  0  0  0  0  0  0  0  0
   -5.9820   -3.6600    0.0000 O   0  0  0  0  0  0  0  0  0  0  0  0
   -5.0180   -1.9900    0.0000 O   0  0  0  0  0  0  0  0  0  0  0  0
   -7.7940   -3.0000    0.0000 N   0  0  0  0  0  0  0  0  0  0  0  0
   -7.7940   -4.5000    0.0000 C   0  0  0  0  0  0  0  0  0  0  0  0
   -6.4950   -5.2500    0.0000 O   0  0  0  0  0  0  0  0  0  0  0  0
   -9.0930   -5.2500    0.0000 N   0  0  0  0  0  0  0  0  0  0  0  0
   -9.0930   -6.7500    0.0000 C   0  0  0  0  0  0  0  0  0  0  0  0
  -10.3920   -7.5000    0.0000 C   0  0  0  0  0  0  0  0  0  0  0  0
   -7.7940   -7.5000    0.0000 C   0  0  0  0  0  0  0  0  0  0  0  0
  1  2  1  0  0  0  0
  2  3  1  0  0  0  0
  2  7  2  0  0  0  0
  3  4  2  0  0  0  0
  4  5  1  0  0  0  0
  5  6  2  0  0  0  0
  6  7  1  0  0  0  0
  6  8  1  0  0  0  0
  8  9  1  0  0  0  0
  9 10  1  0  0  0  0
  9 14  2  0  0  0  0
 10 11  2  0  0  0  0
 11 12  1  0  0  0  0
 12 13  2  0  0  0  0
 13 14  1  0  0  0  0
 14 15  1  0  0  0  0
 15 16  2  0  0  0  0
 15 17  2  0  0  0  0
 15 18  1  0  0  0  0
 18 19  1  0  0  0  0
 19 20  2  0  0  0  0
 19 21  1  0  0  0  0
 21 22  1  0  0  0  0
 22 23  1  0  0  0  0
 22 24  1  0  0  0  0
M  END
>  <n>
591

>  <SMILES>
S(=O)(=O)(NC(=O)NC(C)C)c1cnccc1Nc1cc(ccc1)C

>  <IC50>
130.7

>  <Class>
0

>  <NAME>
TORSEMIDE

>  <INCHI_KEY>
NGBFQHCMQULJNZ-UHFFFAOYSA-N

>  <Reference>
Mitigating the inhibition of human Bile Salt Export Pump by drugs_ opportunities provided by physicochemical property modulation,  in-silico modeling and structural modification_SI

$$$$
TRAPIDIL
  MOE2013           2D

 15 16  0  0  0  0  0  0  0  0999 V2000
    2.5980    6.0000    0.0000 C   0  0  0  0  0  0  0  0  0  0  0  0
    2.5980    4.5000    0.0000 C   0  0  0  0  0  0  0  0  0  0  0  0
    1.2990    3.7500    0.0000 N   0  0  0  0  0  0  0  0  0  0  0  0
    0.0000    4.5000    0.0000 C   0  0  0  0  0  0  0  0  0  0  0  0
    0.0000    6.0000    0.0000 C   0  0  0  0  0  0  0  0  0  0  0  0
    1.2990    2.2500    0.0000 C   0  0  0  0  0  0  0  0  0  0  0  0
    2.5980    1.5000    0.0000 C   0  0  0  0  0  0  0  0  0  0  0  0
    2.5980    0.0000    0.0000 C   0  0  0  0  0  0  0  0  0  0  0  0
    1.2990   -0.7500    0.0000 N   0  0  0  0  0  0  0  0  0  0  0  0
    0.0000    0.0000    0.0000 C   0  0  0  0  0  0  0  0  0  0  0  0
    0.0000    1.5000    0.0000 N   0  0  0  0  0  0  0  0  0  0  0  0
   -1.4270    1.9640    0.0000 N   0  0  0  0  0  0  0  0  0  0  0  0
   -2.3080    0.7500    0.0000 C   0  0  0  0  0  0  0  0  0  0  0  0
   -1.4270   -0.4640    0.0000 N   0  0  0  0  0  0  0  0  0  0  0  0
    3.8970   -0.7500    0.0000 C   0  0  0  0  0  0  0  0  0  0  0  0
  1  2  1  0  0  0  0
  2  3  1  0  0  0  0
  3  4  1  0  0  0  0
  3  6  1  0  0  0  0
  4  5  1  0  0  0  0
  6  7  2  0  0  0  0
  6 11  1  0  0  0  0
  7  8  1  0  0  0  0
  8  9  2  0  0  0  0
  8 15  1  0  0  0  0
  9 10  1  0  0  0  0
 10 11  1  0  0  0  0
 10 14  2  0  0  0  0
 11 12  1  0  0  0  0
 12 13  2  0  0  0  0
 13 14  1  0  0  0  0
M  END
>  <n>
592

>  <SMILES>
n12ncnc1N=C(C=C2N(CC)CC)C

>  <IC50>
627.8

>  <Class>
0

>  <NAME>
TRAPIDIL

>  <INCHI_KEY>
GSNOZLZNQMLSKJ-UHFFFAOYSA-N

>  <Reference>
Mitigating the inhibition of human Bile Salt Export Pump by drugs_ opportunities provided by physicochemical property modulation,  in-silico modeling and structural modification_SI

$$$$
TRETINOIN
  MOE2013           2D

 22 22  0  0  0  0  0  0  0  0999 V2000
    1.2990   -0.7500    0.0000 C   0  0  0  0  0  0  0  0  0  0  0  0
    0.0000    0.0000    0.0000 C   0  0  0  0  0  0  0  0  0  0  0  0
    0.0000    1.5000    0.0000 C   0  0  0  0  0  0  0  0  0  0  0  0
   -1.2990    2.2500    0.0000 C   0  0  0  0  0  0  0  0  0  0  0  0
   -2.5980    1.5000    0.0000 C   0  0  0  0  0  0  0  0  0  0  0  0
   -2.5980    0.0000    0.0000 C   0  0  0  0  0  0  0  0  0  0  0  0
   -1.2990   -0.7500    0.0000 C   0  0  0  0  0  0  0  0  0  0  0  0
   -0.3350    3.3990    0.0000 C   0  0  0  0  0  0  0  0  0  0  0  0
   -2.2630    3.3990    0.0000 C   0  0  0  0  0  0  0  0  0  0  0  0
    1.2990    2.2500    0.0000 C   0  0  0  0  0  0  0  0  0  0  0  0
    2.5980    1.5000    0.0000 C   0  0  0  0  0  0  0  0  0  0  0  0
    3.8970    2.2500    0.0000 C   0  0  0  0  0  0  0  0  0  0  0  0
    5.1960    1.5000    0.0000 C   0  0  0  0  0  0  0  0  0  0  0  0
    6.4950    2.2500    0.0000 C   0  0  0  0  0  0  0  0  0  0  0  0
    7.7940    1.5000    0.0000 C   0  0  0  0  0  0  0  0  0  0  0  0
    9.0930    2.2500    0.0000 C   0  0  0  0  0  0  0  0  0  0  0  0
   10.3920    1.5000    0.0000 C   0  0  0  0  0  0  0  0  0  0  0  0
   11.6910    2.2500    0.0000 C   0  0  0  0  0  0  0  0  0  0  0  0
   12.9900    1.5000    0.0000 O   0  0  0  0  0  0  0  0  0  0  0  0
   11.6910    3.7500    0.0000 O   0  0  0  0  0  0  0  0  0  0  0  0
    9.0930    3.7500    0.0000 C   0  0  0  0  0  0  0  0  0  0  0  0
    3.8970    3.7500    0.0000 C   0  0  0  0  0  0  0  0  0  0  0  0
  1  2  1  0  0  0  0
  2  3  2  0  0  0  0
  2  7  1  0  0  0  0
  3  4  1  0  0  0  0
  3 10  1  0  0  0  0
  4  5  1  0  0  0  0
  4  8  1  0  0  0  0
  4  9  1  0  0  0  0
  5  6  1  0  0  0  0
  6  7  1  0  0  0  0
 10 11  2  0  0  0  0
 11 12  1  0  0  0  0
 12 13  2  0  0  0  0
 12 22  1  0  0  0  0
 13 14  1  0  0  0  0
 14 15  2  0  0  0  0
 15 16  1  0  0  0  0
 16 17  2  0  0  0  0
 16 21  1  0  0  0  0
 17 18  1  0  0  0  0
 18 19  2  0  0  0  0
 18 20  1  0  0  0  0
M  END
>  <n>
593

>  <SMILES>
OC(=O)\C=C(\C=C\C=C(\C=C\C=1C(CCCC=1C)(C)C)/C)/C

>  <IC50>
<10

>  <Class>
1

>  <NAME>
TRETINOIN

>  <INCHI_KEY>
SHGAZHPCJJPHSC-YCNIQYBTSA-N

>  <Reference>
Mitigating the inhibition of human Bile Salt Export Pump by drugs_ opportunities provided by physicochemical property modulation,  in-silico modeling and structural modification_SI

$$$$
TRIFLUOPERAZINE
  MOE2013           2D

 28 31  0  0  1  0  0  0  0  0999 V2000
    9.0930    2.2500    0.0000 C   0  0  0  0  0  0  0  0  0  0  0  0
    7.7940    1.5000    0.0000 N   0  0  0  0  0  0  0  0  0  0  0  0
    6.4950    2.2500    0.0000 C   0  0  0  0  0  0  0  0  0  0  0  0
    5.1960    1.5000    0.0000 C   0  0  0  0  0  0  0  0  0  0  0  0
    5.1960    0.0000    0.0000 N   0  0  0  0  0  0  0  0  0  0  0  0
    6.4950   -0.7500    0.0000 C   0  0  0  0  0  0  0  0  0  0  0  0
    7.7940    0.0000    0.0000 C   0  0  0  0  0  0  0  0  0  0  0  0
    3.8970   -0.7500    0.0000 C   0  0  0  0  0  0  0  0  0  0  0  0
    2.5980    0.0000    0.0000 C   0  0  0  0  0  0  0  0  0  0  0  0
    1.2990   -0.7500    0.0000 C   0  0  0  0  0  0  0  0  0  0  0  0
    0.0000    0.0000    0.0000 N   0  0  3  0  0  0  0  0  0  0  0  0
    0.0000    1.5000    0.0000 C   0  0  0  0  0  0  0  0  0  0  0  0
    1.2990    2.2500    0.0000 C   0  0  0  0  0  0  0  0  0  0  0  0
    1.2990    3.7500    0.0000 C   0  0  0  0  0  0  0  0  0  0  0  0
    0.0000    4.5000    0.0000 C   0  0  0  0  0  0  0  0  0  0  0  0
   -1.2990    3.7500    0.0000 C   0  0  0  0  0  0  0  0  0  0  0  0
   -1.2990    2.2500    0.0000 C   0  0  0  0  0  0  0  0  0  0  0  0
   -2.5980    1.5000    0.0000 S   0  0  0  0  0  0  0  0  0  0  0  0
   -2.5980    0.0000    0.0000 C   0  0  0  0  0  0  0  0  0  0  0  0
   -1.2990   -0.7500    0.0000 C   0  0  0  0  0  0  0  0  0  0  0  0
   -1.2990   -2.2500    0.0000 C   0  0  0  0  0  0  0  0  0  0  0  0
   -2.5980   -3.0000    0.0000 C   0  0  0  0  0  0  0  0  0  0  0  0
   -3.8970   -2.2500    0.0000 C   0  0  0  0  0  0  0  0  0  0  0  0
   -3.8970   -0.7500    0.0000 C   0  0  0  0  0  0  0  0  0  0  0  0
   -2.5980   -4.5000    0.0000 C   0  0  0  0  0  0  0  0  0  0  0  0
   -3.8970   -5.2500    0.0000 F   0  0  0  0  0  0  0  0  0  0  0  0
   -2.0850   -5.9100    0.0000 F   0  0  0  0  0  0  0  0  0  0  0  0
   -1.1210   -4.2400    0.0000 F   0  0  0  0  0  0  0  0  0  0  0  0
  1  2  1  0  0  0  0
  2  3  1  0  0  0  0
  2  7  1  0  0  0  0
  3  4  1  0  0  0  0
  4  5  1  0  0  0  0
  5  6  1  0  0  0  0
  5  8  1  0  0  0  0
  6  7  1  0  0  0  0
  8  9  1  0  0  0  0
  9 10  1  0  0  0  0
 10 11  1  0  0  0  0
 11 12  1  0  0  0  0
 11 20  1  0  0  0  0
 12 13  1  0  0  0  0
 12 17  2  0  0  0  0
 13 14  2  0  0  0  0
 14 15  1  0  0  0  0
 15 16  2  0  0  0  0
 16 17  1  0  0  0  0
 17 18  1  0  0  0  0
 18 19  1  0  0  0  0
 19 20  1  0  0  0  0
 19 24  2  0  0  0  0
 20 21  2  0  0  0  0
 21 22  1  0  0  0  0
 22 23  2  0  0  0  0
 22 25  1  0  0  0  0
 23 24  1  0  0  0  0
 25 26  1  0  0  0  0
 25 27  1  0  0  0  0
 25 28  1  0  0  0  0
M  END
>  <n>
594

>  <SMILES>
S1c2c(N(c3c1cccc3)CCCN1CCN(CC1)C)cc(cc2)C(F)(F)F

>  <IC50>
<10

>  <Class>
1

>  <NAME>
TRIFLUOPERAZINE

>  <INCHI_KEY>
ZEWQUBUPAILYHI-UHFFFAOYSA-N

>  <Reference>
Mitigating the inhibition of human Bile Salt Export Pump by drugs_ opportunities provided by physicochemical property modulation,  in-silico modeling and structural modification_SI

$$$$
TRIMEBUTINE
  MOE2013           2D

 28 29  0  0  1  0  0  0  0  0999 V2000
    3.7400    0.1390    0.0000 C   0  0  0  0  0  0  0  0  0  0  0  0
    2.7760   -1.0100    0.0000 C   0  0  0  0  0  0  0  0  0  0  0  0
    1.2990   -0.7500    0.0000 C   0  0  3  0  0  0  0  0  0  0  0  0
    1.2990   -2.2500    0.0000 C   0  0  0  0  0  0  0  0  0  0  0  0
    2.5980   -3.0000    0.0000 O   0  0  0  0  0  0  0  0  0  0  0  0
    2.5980   -4.5000    0.0000 C   0  0  0  0  0  0  0  0  0  0  0  0
    1.2990   -5.2500    0.0000 O   0  0  0  0  0  0  0  0  0  0  0  0
    3.8970   -5.2500    0.0000 C   0  0  0  0  0  0  0  0  0  0  0  0
    3.8970   -6.7500    0.0000 C   0  0  0  0  0  0  0  0  0  0  0  0
    5.1960   -7.5000    0.0000 C   0  0  0  0  0  0  0  0  0  0  0  0
    6.4950   -6.7500    0.0000 C   0  0  0  0  0  0  0  0  0  0  0  0
    6.4950   -5.2500    0.0000 C   0  0  0  0  0  0  0  0  0  0  0  0
    5.1960   -4.5000    0.0000 C   0  0  0  0  0  0  0  0  0  0  0  0
    7.7940   -4.5000    0.0000 O   0  0  0  0  0  0  0  0  0  0  0  0
    9.0930   -5.2500    0.0000 C   0  0  0  0  0  0  0  0  0  0  0  0
    7.7940   -7.5000    0.0000 O   0  0  0  0  0  0  0  0  0  0  0  0
    7.7940   -9.0000    0.0000 C   0  0  0  0  0  0  0  0  0  0  0  0
    5.1960   -9.0000    0.0000 O   0  0  0  0  0  0  0  0  0  0  0  0
    6.4950   -9.7500    0.0000 C   0  0  0  0  0  0  0  0  0  0  0  0
    0.0000    0.0000    0.0000 C   0  0  0  0  0  0  0  0  0  0  0  0
    0.0000    1.5000    0.0000 C   0  0  0  0  0  0  0  0  0  0  0  0
   -1.2990    2.2500    0.0000 C   0  0  0  0  0  0  0  0  0  0  0  0
   -2.5980    1.5000    0.0000 C   0  0  0  0  0  0  0  0  0  0  0  0
   -2.5980    0.0000    0.0000 C   0  0  0  0  0  0  0  0  0  0  0  0
   -1.2990   -0.7500    0.0000 C   0  0  0  0  0  0  0  0  0  0  0  0
    1.8120    0.6600    0.0000 N   0  0  0  0  0  0  0  0  0  0  0  0
    3.2890    0.9200    0.0000 C   0  0  0  0  0  0  0  0  0  0  0  0
    0.8480    1.8090    0.0000 C   0  0  0  0  0  0  0  0  0  0  0  0
  1  2  1  0  0  0  0
  2  3  1  0  0  0  0
  3  4  1  0  0  0  0
  3 20  1  0  0  0  0
  3 26  1  0  0  0  0
  4  5  1  0  0  0  0
  5  6  1  0  0  0  0
  6  7  2  0  0  0  0
  6  8  1  0  0  0  0
  8  9  1  0  0  0  0
  8 13  2  0  0  0  0
  9 10  2  0  0  0  0
 10 11  1  0  0  0  0
 10 18  1  0  0  0  0
 11 12  2  0  0  0  0
 11 16  1  0  0  0  0
 12 13  1  0  0  0  0
 12 14  1  0  0  0  0
 14 15  1  0  0  0  0
 16 17  1  0  0  0  0
 18 19  1  0  0  0  0
 20 21  1  0  0  0  0
 20 25  2  0  0  0  0
 21 22  2  0  0  0  0
 22 23  1  0  0  0  0
 23 24  2  0  0  0  0
 24 25  1  0  0  0  0
 26 27  1  0  0  0  0
 26 28  1  0  0  0  0
M  END
>  <n>
597

>  <SMILES>
O(C)c1c(OC)cc(cc1OC)C(OCC(N(C)C)(CC)c1ccccc1)=O

>  <IC50>
<10

>  <Class>
1

>  <NAME>
TRIMEBUTINE

>  <INCHI_KEY>
LORDFXWUHHSAQU-UHFFFAOYSA-N

>  <Reference>
Mitigating the inhibition of human Bile Salt Export Pump by drugs_ opportunities provided by physicochemical property modulation,  in-silico modeling and structural modification_SI

$$$$
TRIMEPRAZINE
  MOE2013           2D

 21 23  0  0  1  0  0  0  0  0999 V2000
    0.0000   -3.0000    0.0000 C   0  0  0  0  0  0  0  0  0  0  0  0
    1.2990   -2.2500    0.0000 C   0  0  3  0  0  0  0  0  0  0  0  0
    1.2990   -0.7500    0.0000 C   0  0  0  0  0  0  0  0  0  0  0  0
    0.0000    0.0000    0.0000 N   0  0  0  0  0  0  0  0  0  0  0  0
    0.0000    1.5000    0.0000 C   0  0  0  0  0  0  0  0  0  0  0  0
    1.2990    2.2500    0.0000 C   0  0  0  0  0  0  0  0  0  0  0  0
    1.2990    3.7500    0.0000 C   0  0  0  0  0  0  0  0  0  0  0  0
    0.0000    4.5000    0.0000 C   0  0  0  0  0  0  0  0  0  0  0  0
   -1.2990    3.7500    0.0000 C   0  0  0  0  0  0  0  0  0  0  0  0
   -1.2990    2.2500    0.0000 C   0  0  0  0  0  0  0  0  0  0  0  0
   -2.5980    1.5000    0.0000 S   0  0  0  0  0  0  0  0  0  0  0  0
   -2.5980    0.0000    0.0000 C   0  0  0  0  0  0  0  0  0  0  0  0
   -1.2990   -0.7500    0.0000 C   0  0  0  0  0  0  0  0  0  0  0  0
   -1.2990   -2.2500    0.0000 C   0  0  0  0  0  0  0  0  0  0  0  0
   -2.5980   -3.0000    0.0000 C   0  0  0  0  0  0  0  0  0  0  0  0
   -3.8970   -2.2500    0.0000 C   0  0  0  0  0  0  0  0  0  0  0  0
   -3.8970   -0.7500    0.0000 C   0  0  0  0  0  0  0  0  0  0  0  0
    2.5980   -3.0000    0.0000 C   0  0  0  0  0  0  0  0  0  0  0  0
    2.5980   -4.5000    0.0000 N   0  0  0  0  0  0  0  0  0  0  0  0
    3.8970   -5.2500    0.0000 C   0  0  0  0  0  0  0  0  0  0  0  0
    1.2990   -5.2500    0.0000 C   0  0  0  0  0  0  0  0  0  0  0  0
  1  2  1  0  0  0  0
  2  3  1  0  0  0  0
  2 18  1  0  0  0  0
  3  4  1  0  0  0  0
  4  5  1  0  0  0  0
  4 13  1  0  0  0  0
  5  6  1  0  0  0  0
  5 10  2  0  0  0  0
  6  7  2  0  0  0  0
  7  8  1  0  0  0  0
  8  9  2  0  0  0  0
  9 10  1  0  0  0  0
 10 11  1  0  0  0  0
 11 12  1  0  0  0  0
 12 13  1  0  0  0  0
 12 17  2  0  0  0  0
 13 14  2  0  0  0  0
 14 15  1  0  0  0  0
 15 16  2  0  0  0  0
 16 17  1  0  0  0  0
 18 19  1  0  0  0  0
 19 20  1  0  0  0  0
 19 21  1  0  0  0  0
M  END
>  <n>
598

>  <SMILES>
S1c2c(N(c3c1cccc3)CC(CN(C)C)C)cccc2

>  <IC50>
73.72

>  <Class>
0

>  <NAME>
TRIMEPRAZINE

>  <INCHI_KEY>
ZZHLYYDVIOPZBE-UHFFFAOYSA-N

>  <Reference>
Mitigating the inhibition of human Bile Salt Export Pump by drugs_ opportunities provided by physicochemical property modulation,  in-silico modeling and structural modification_SI

$$$$
TRIMETHOPRIM
  MOE2013           2D

 21 22  0  0  0  0  0  0  0  0999 V2000
    2.5980    0.0000    0.0000 C   0  0  0  0  0  0  0  0  0  0  0  0
    1.2990   -0.7500    0.0000 O   0  0  0  0  0  0  0  0  0  0  0  0
    0.0000    0.0000    0.0000 C   0  0  0  0  0  0  0  0  0  0  0  0
    0.0000    1.5000    0.0000 C   0  0  0  0  0  0  0  0  0  0  0  0
   -1.2990    2.2500    0.0000 C   0  0  0  0  0  0  0  0  0  0  0  0
   -2.5980    1.5000    0.0000 C   0  0  0  0  0  0  0  0  0  0  0  0
   -2.5980    0.0000    0.0000 C   0  0  0  0  0  0  0  0  0  0  0  0
   -1.2990   -0.7500    0.0000 C   0  0  0  0  0  0  0  0  0  0  0  0
   -1.2990   -2.2500    0.0000 O   0  0  0  0  0  0  0  0  0  0  0  0
   -2.5980   -3.0000    0.0000 C   0  0  0  0  0  0  0  0  0  0  0  0
   -3.8970   -0.7500    0.0000 O   0  0  0  0  0  0  0  0  0  0  0  0
   -5.1960    0.0000    0.0000 C   0  0  0  0  0  0  0  0  0  0  0  0
   -1.2990    3.7500    0.0000 C   0  0  0  0  0  0  0  0  0  0  0  0
    0.0000    4.5000    0.0000 C   0  0  0  0  0  0  0  0  0  0  0  0
    1.2990    3.7500    0.0000 C   0  0  0  0  0  0  0  0  0  0  0  0
    2.5980    4.5000    0.0000 N   0  0  0  0  0  0  0  0  0  0  0  0
    2.5980    6.0000    0.0000 C   0  0  0  0  0  0  0  0  0  0  0  0
    1.2990    6.7500    0.0000 N   0  0  0  0  0  0  0  0  0  0  0  0
    0.0000    6.0000    0.0000 C   0  0  0  0  0  0  0  0  0  0  0  0
   -1.2990    6.7500    0.0000 N   0  0  0  0  0  0  0  0  0  0  0  0
    3.8970    6.7500    0.0000 N   0  0  0  0  0  0  0  0  0  0  0  0
  1  2  1  0  0  0  0
  2  3  1  0  0  0  0
  3  4  1  0  0  0  0
  3  8  2  0  0  0  0
  4  5  2  0  0  0  0
  5  6  1  0  0  0  0
  5 13  1  0  0  0  0
  6  7  2  0  0  0  0
  7  8  1  0  0  0  0
  7 11  1  0  0  0  0
  8  9  1  0  0  0  0
  9 10  1  0  0  0  0
 11 12  1  0  0  0  0
 13 14  1  0  0  0  0
 14 15  1  0  0  0  0
 14 19  2  0  0  0  0
 15 16  2  0  0  0  0
 16 17  1  0  0  0  0
 17 18  2  0  0  0  0
 17 21  1  0  0  0  0
 18 19  1  0  0  0  0
 19 20  1  0  0  0  0
M  END
>  <n>
599

>  <SMILES>
O(C)c1c(OC)cc(cc1OC)Cc1cnc(nc1N)N

>  <IC50>
833.1

>  <Class>
0

>  <NAME>
TRIMETHOPRIM

>  <INCHI_KEY>
IEDVJHCEMCRBQM-UHFFFAOYSA-N

>  <Reference>
Mitigating the inhibition of human Bile Salt Export Pump by drugs_ opportunities provided by physicochemical property modulation,  in-silico modeling and structural modification_SI

$$$$
TRIMETOZINE
  MOE2013           2D

 20 21  0  0  0  0  0  0  0  0999 V2000
    2.5980    0.0000    0.0000 C   0  0  0  0  0  0  0  0  0  0  0  0
    1.2990   -0.7500    0.0000 O   0  0  0  0  0  0  0  0  0  0  0  0
    0.0000    0.0000    0.0000 C   0  0  0  0  0  0  0  0  0  0  0  0
    0.0000    1.5000    0.0000 C   0  0  0  0  0  0  0  0  0  0  0  0
   -1.2990    2.2500    0.0000 C   0  0  0  0  0  0  0  0  0  0  0  0
   -2.5980    1.5000    0.0000 C   0  0  0  0  0  0  0  0  0  0  0  0
   -2.5980    0.0000    0.0000 C   0  0  0  0  0  0  0  0  0  0  0  0
   -1.2990   -0.7500    0.0000 C   0  0  0  0  0  0  0  0  0  0  0  0
   -1.2990   -2.2500    0.0000 O   0  0  0  0  0  0  0  0  0  0  0  0
   -2.5980   -3.0000    0.0000 C   0  0  0  0  0  0  0  0  0  0  0  0
   -3.8970   -0.7500    0.0000 O   0  0  0  0  0  0  0  0  0  0  0  0
   -5.1960    0.0000    0.0000 C   0  0  0  0  0  0  0  0  0  0  0  0
   -1.2990    3.7500    0.0000 C   0  0  0  0  0  0  0  0  0  0  0  0
   -2.5980    4.5000    0.0000 O   0  0  0  0  0  0  0  0  0  0  0  0
    0.0000    4.5000    0.0000 N   0  0  0  0  0  0  0  0  0  0  0  0
    1.2990    3.7500    0.0000 C   0  0  0  0  0  0  0  0  0  0  0  0
    2.5980    4.5000    0.0000 C   0  0  0  0  0  0  0  0  0  0  0  0
    2.5980    6.0000    0.0000 O   0  0  0  0  0  0  0  0  0  0  0  0
    1.2990    6.7500    0.0000 C   0  0  0  0  0  0  0  0  0  0  0  0
    0.0000    6.0000    0.0000 C   0  0  0  0  0  0  0  0  0  0  0  0
  1  2  1  0  0  0  0
  2  3  1  0  0  0  0
  3  4  1  0  0  0  0
  3  8  2  0  0  0  0
  4  5  2  0  0  0  0
  5  6  1  0  0  0  0
  5 13  1  0  0  0  0
  6  7  2  0  0  0  0
  7  8  1  0  0  0  0
  7 11  1  0  0  0  0
  8  9  1  0  0  0  0
  9 10  1  0  0  0  0
 11 12  1  0  0  0  0
 13 14  2  0  0  0  0
 13 15  1  0  0  0  0
 15 16  1  0  0  0  0
 15 20  1  0  0  0  0
 16 17  1  0  0  0  0
 17 18  1  0  0  0  0
 18 19  1  0  0  0  0
 19 20  1  0  0  0  0
M  END
>  <n>
600

>  <SMILES>
O1CCN(CC1)C(=O)c1cc(OC)c(OC)c(OC)c1

>  <IC50>
>1000

>  <Class>
0

>  <NAME>
TRIMETOZINE

>  <INCHI_KEY>
XWVOEFLBOSSYGM-UHFFFAOYSA-N

>  <Reference>
Mitigating the inhibition of human Bile Salt Export Pump by drugs_ opportunities provided by physicochemical property modulation,  in-silico modeling and structural modification_SI

$$$$
TRIOXSALEN
  MOE2013           2D

 17 19  0  0  0  0  0  0  0  0999 V2000
    1.2990    3.7500    0.0000 C   0  0  0  0  0  0  0  0  0  0  0  0
    1.2990    2.2500    0.0000 C   0  0  0  0  0  0  0  0  0  0  0  0
    2.5980    1.5000    0.0000 C   0  0  0  0  0  0  0  0  0  0  0  0
    2.5980    0.0000    0.0000 C   0  0  0  0  0  0  0  0  0  0  0  0
    3.8970   -0.7500    0.0000 O   0  0  0  0  0  0  0  0  0  0  0  0
    1.2990   -0.7500    0.0000 O   0  0  0  0  0  0  0  0  0  0  0  0
    0.0000    0.0000    0.0000 C   0  0  0  0  0  0  0  0  0  0  0  0
    0.0000    1.5000    0.0000 C   0  0  0  0  0  0  0  0  0  0  0  0
   -1.2990    2.2500    0.0000 C   0  0  0  0  0  0  0  0  0  0  0  0
   -2.5980    1.5000    0.0000 C   0  0  0  0  0  0  0  0  0  0  0  0
   -4.0250    1.9640    0.0000 C   0  0  0  0  0  0  0  0  0  0  0  0
   -4.9060    0.7500    0.0000 C   0  0  0  0  0  0  0  0  0  0  0  0
   -4.0250   -0.4640    0.0000 O   0  0  0  0  0  0  0  0  0  0  0  0
   -2.5980    0.0000    0.0000 C   0  0  0  0  0  0  0  0  0  0  0  0
   -1.2990   -0.7500    0.0000 C   0  0  0  0  0  0  0  0  0  0  0  0
   -1.2990   -2.2500    0.0000 C   0  0  0  0  0  0  0  0  0  0  0  0
   -6.4060    0.7500    0.0000 C   0  0  0  0  0  0  0  0  0  0  0  0
  1  2  1  0  0  0  0
  2  3  2  0  0  0  0
  2  8  1  0  0  0  0
  3  4  1  0  0  0  0
  4  5  2  0  0  0  0
  4  6  1  0  0  0  0
  6  7  1  0  0  0  0
  7  8  1  0  0  0  0
  7 15  2  0  0  0  0
  8  9  2  0  0  0  0
  9 10  1  0  0  0  0
 10 11  1  0  0  0  0
 10 14  2  0  0  0  0
 11 12  2  0  0  0  0
 12 13  1  0  0  0  0
 12 17  1  0  0  0  0
 13 14  1  0  0  0  0
 14 15  1  0  0  0  0
 15 16  1  0  0  0  0
M  END
>  <n>
601

>  <SMILES>
O1c2c(cc3c(oc(c3)C)c2C)C(=CC1=O)C

>  <IC50>
>525.1

>  <Class>
0

>  <NAME>
TRIOXSALEN

>  <INCHI_KEY>
FMHHVULEAZTJMA-UHFFFAOYSA-N

>  <Reference>
Mitigating the inhibition of human Bile Salt Export Pump by drugs_ opportunities provided by physicochemical property modulation,  in-silico modeling and structural modification_SI

$$$$
TRIPROLIDINE
  MOE2013           2D

 21 23  0  0  0  0  0  0  0  0999 V2000
    9.2790    1.2870    0.0000 C   0  0  0  0  0  0  0  0  0  0  0  0
    7.9080    0.6770    0.0000 C   0  0  0  0  0  0  0  0  0  0  0  0
    6.6950    1.5590    0.0000 C   0  0  0  0  0  0  0  0  0  0  0  0
    5.3240    0.9490    0.0000 C   0  0  0  0  0  0  0  0  0  0  0  0
    5.1680   -0.5430    0.0000 C   0  0  0  0  0  0  0  0  0  0  0  0
    6.3810   -1.4250    0.0000 C   0  0  0  0  0  0  0  0  0  0  0  0
    7.7520   -0.8150    0.0000 C   0  0  0  0  0  0  0  0  0  0  0  0
    3.7970   -1.1530    0.0000 C   0  0  0  0  0  0  0  0  0  0  0  0
    2.5840   -0.2720    0.0000 C   0  0  0  0  0  0  0  0  0  0  0  0
    2.7410    1.2200    0.0000 C   0  0  0  0  0  0  0  0  0  0  0  0
    1.5270    2.1020    0.0000 N   0  0  0  0  0  0  0  0  0  0  0  0
    0.1000    1.6380    0.0000 C   0  0  0  0  0  0  0  0  0  0  0  0
   -0.7810    2.8520    0.0000 C   0  0  0  0  0  0  0  0  0  0  0  0
    0.1000    4.0650    0.0000 C   0  0  0  0  0  0  0  0  0  0  0  0
    1.5270    3.6020    0.0000 C   0  0  0  0  0  0  0  0  0  0  0  0
    3.6410   -2.6450    0.0000 C   0  0  0  0  0  0  0  0  0  0  0  0
    2.2700   -3.2550    0.0000 C   0  0  0  0  0  0  0  0  0  0  0  0
    2.1140   -4.7470    0.0000 C   0  0  0  0  0  0  0  0  0  0  0  0
    3.3270   -5.6290    0.0000 C   0  0  0  0  0  0  0  0  0  0  0  0
    4.6970   -5.0180    0.0000 C   0  0  0  0  0  0  0  0  0  0  0  0
    4.8540   -3.5270    0.0000 N   0  0  0  0  0  0  0  0  0  0  0  0
  1  2  1  0  0  0  0
  2  3  1  0  0  0  0
  2  7  2  0  0  0  0
  3  4  2  0  0  0  0
  4  5  1  0  0  0  0
  5  6  2  0  0  0  0
  5  8  1  0  0  0  0
  6  7  1  0  0  0  0
  8  9  2  0  0  0  0
  8 16  1  0  0  0  0
  9 10  1  0  0  0  0
 10 11  1  0  0  0  0
 11 12  1  0  0  0  0
 11 15  1  0  0  0  0
 12 13  1  0  0  0  0
 13 14  1  0  0  0  0
 14 15  1  0  0  0  0
 16 17  1  0  0  0  0
 16 21  2  0  0  0  0
 17 18  2  0  0  0  0
 18 19  1  0  0  0  0
 19 20  2  0  0  0  0
 20 21  1  0  0  0  0
M  END
>  <n>
602

>  <SMILES>
n1ccccc1/C(=C/CN1CCCC1)/c1ccc(cc1)C

>  <IC50>
290.8

>  <Class>
0

>  <NAME>
TRIPROLIDINE

>  <INCHI_KEY>
CBEQULMOCCWAQT-WOJGMQOQSA-N

>  <Reference>
Mitigating the inhibition of human Bile Salt Export Pump by drugs_ opportunities provided by physicochemical property modulation,  in-silico modeling and structural modification_SI

$$$$
TROGLITAZONE
  MOE2013           2D

 31 34  0  0  1  0  0  0  0  0999 V2000
    1.2990   -0.7500    0.0000 C   0  0  0  0  0  0  0  0  0  0  0  0
    0.0000    0.0000    0.0000 C   0  0  0  0  0  0  0  0  0  0  0  0
    0.0000    1.5000    0.0000 C   0  0  0  0  0  0  0  0  0  0  0  0
   -1.2990    2.2500    0.0000 C   0  0  0  0  0  0  0  0  0  0  0  0
   -2.5980    1.5000    0.0000 C   0  0  0  0  0  0  0  0  0  0  0  0
   -2.5980    0.0000    0.0000 C   0  0  0  0  0  0  0  0  0  0  0  0
   -1.2990   -0.7500    0.0000 C   0  0  0  0  0  0  0  0  0  0  0  0
   -1.2990   -2.2500    0.0000 O   0  0  0  0  0  0  0  0  0  0  0  0
   -3.8970   -0.7500    0.0000 C   0  0  0  0  0  0  0  0  0  0  0  0
   -3.8970    2.2500    0.0000 C   0  0  0  0  0  0  0  0  0  0  0  0
   -3.8970    3.7500    0.0000 C   0  0  0  0  0  0  0  0  0  0  0  0
   -2.5980    4.5000    0.0000 C   0  0  3  0  0  0  0  0  0  0  0  0
   -1.2990    3.7500    0.0000 O   0  0  0  0  0  0  0  0  0  0  0  0
   -1.6340    5.6490    0.0000 C   0  0  0  0  0  0  0  0  0  0  0  0
   -3.5620    5.6490    0.0000 C   0  0  0  0  0  0  0  0  0  0  0  0
   -3.0490    7.0590    0.0000 O   0  0  0  0  0  0  0  0  0  0  0  0
   -4.0130    8.2080    0.0000 C   0  0  0  0  0  0  0  0  0  0  0  0
   -3.5000    9.6170    0.0000 C   0  0  0  0  0  0  0  0  0  0  0  0
   -4.4650   10.7660    0.0000 C   0  0  0  0  0  0  0  0  0  0  0  0
   -5.9420   10.5060    0.0000 C   0  0  0  0  0  0  0  0  0  0  0  0
   -6.4550    9.0960    0.0000 C   0  0  0  0  0  0  0  0  0  0  0  0
   -5.4910    7.9470    0.0000 C   0  0  0  0  0  0  0  0  0  0  0  0
   -6.9060   11.6550    0.0000 C   0  0  0  0  0  0  0  0  0  0  0  0
   -6.3930   13.0640    0.0000 C   0  0  3  0  0  0  0  0  0  0  0  0
   -4.9510   13.4780    0.0000 C   0  0  0  0  0  0  0  0  0  0  0  0
   -3.7690   12.5540    0.0000 O   0  0  0  0  0  0  0  0  0  0  0  0
   -4.8990   14.9770    0.0000 N   0  0  0  0  0  0  0  0  0  0  0  0
   -6.3080   15.4900    0.0000 C   0  0  0  0  0  0  0  0  0  0  0  0
   -6.7220   16.9320    0.0000 O   0  0  0  0  0  0  0  0  0  0  0  0
   -7.2320   14.3080    0.0000 S   0  0  0  0  0  0  0  0  0  0  0  0
    1.2990    2.2500    0.0000 C   0  0  0  0  0  0  0  0  0  0  0  0
  1  2  1  0  0  0  0
  2  3  1  0  0  0  0
  2  7  2  0  0  0  0
  3  4  2  0  0  0  0
  3 31  1  0  0  0  0
  4  5  1  0  0  0  0
  4 13  1  0  0  0  0
  5  6  2  0  0  0  0
  5 10  1  0  0  0  0
  6  7  1  0  0  0  0
  6  9  1  0  0  0  0
  7  8  1  0  0  0  0
 10 11  1  0  0  0  0
 11 12  1  0  0  0  0
 12 13  1  0  0  0  0
 12 14  1  0  0  0  0
 12 15  1  0  0  0  0
 15 16  1  0  0  0  0
 16 17  1  0  0  0  0
 17 18  1  0  0  0  0
 17 22  2  0  0  0  0
 18 19  2  0  0  0  0
 19 20  1  0  0  0  0
 20 21  2  0  0  0  0
 20 23  1  0  0  0  0
 21 22  1  0  0  0  0
 23 24  1  0  0  0  0
 24 25  1  0  0  0  0
 24 30  1  0  0  0  0
 25 26  2  0  0  0  0
 25 27  1  0  0  0  0
 27 28  1  0  0  0  0
 28 29  2  0  0  0  0
 28 30  1  0  0  0  0
M  END
>  <n>
603

>  <SMILES>
S1C(Cc2ccc(OCC3(Oc4c(CC3)c(C)c(O)c(C)c4C)C)cc2)C(=O)NC1=O

>  <IC50>
6.9

>  <Class>
1

>  <NAME>
TROGLITAZONE

>  <INCHI_KEY>
GXPHKUHSUJUWKP-UHFFFAOYSA-N

>  <Reference>
Mitigating, Interference

$$$$
TROPICAMIDE
  MOE2013           2D

 21 22  0  0  1  0  0  0  0  0999 V2000
    5.1960   -3.0000    0.0000 C   0  0  0  0  0  0  0  0  0  0  0  0
    3.8970   -2.2500    0.0000 C   0  0  0  0  0  0  0  0  0  0  0  0
    2.5980   -3.0000    0.0000 N   0  0  0  0  0  0  0  0  0  0  0  0
    2.5980   -4.5000    0.0000 C   0  0  0  0  0  0  0  0  0  0  0  0
    3.8970   -5.2500    0.0000 C   0  0  0  0  0  0  0  0  0  0  0  0
    3.8970   -6.7500    0.0000 C   0  0  0  0  0  0  0  0  0  0  0  0
    5.1960   -7.5000    0.0000 C   0  0  0  0  0  0  0  0  0  0  0  0
    6.4950   -6.7500    0.0000 N   0  0  0  0  0  0  0  0  0  0  0  0
    6.4950   -5.2500    0.0000 C   0  0  0  0  0  0  0  0  0  0  0  0
    5.1960   -4.5000    0.0000 C   0  0  0  0  0  0  0  0  0  0  0  0
    1.2990   -2.2500    0.0000 C   0  0  0  0  0  0  0  0  0  0  0  0
    0.0000   -3.0000    0.0000 O   0  0  0  0  0  0  0  0  0  0  0  0
    1.2990   -0.7500    0.0000 C   0  0  3  0  0  0  0  0  0  0  0  0
    2.5980    0.0000    0.0000 C   0  0  0  0  0  0  0  0  0  0  0  0
    2.5980    1.5000    0.0000 O   0  0  0  0  0  0  0  0  0  0  0  0
    0.0000    0.0000    0.0000 C   0  0  0  0  0  0  0  0  0  0  0  0
    0.0000    1.5000    0.0000 C   0  0  0  0  0  0  0  0  0  0  0  0
   -1.2990    2.2500    0.0000 C   0  0  0  0  0  0  0  0  0  0  0  0
   -2.5980    1.5000    0.0000 C   0  0  0  0  0  0  0  0  0  0  0  0
   -2.5980    0.0000    0.0000 C   0  0  0  0  0  0  0  0  0  0  0  0
   -1.2990   -0.7500    0.0000 C   0  0  0  0  0  0  0  0  0  0  0  0
  1  2  1  0  0  0  0
  2  3  1  0  0  0  0
  3  4  1  0  0  0  0
  3 11  1  0  0  0  0
  4  5  1  0  0  0  0
  5  6  1  0  0  0  0
  5 10  2  0  0  0  0
  6  7  2  0  0  0  0
  7  8  1  0  0  0  0
  8  9  2  0  0  0  0
  9 10  1  0  0  0  0
 11 12  2  0  0  0  0
 11 13  1  0  0  0  0
 13 14  1  0  0  0  0
 13 16  1  0  0  0  0
 14 15  1  0  0  0  0
 16 17  1  0  0  0  0
 16 21  2  0  0  0  0
 17 18  2  0  0  0  0
 18 19  1  0  0  0  0
 19 20  2  0  0  0  0
 20 21  1  0  0  0  0
M  END
>  <n>
604

>  <SMILES>
OCC(C(=O)N(Cc1ccncc1)CC)c1ccccc1

>  <IC50>
150.9

>  <Class>
0

>  <NAME>
TROPICAMIDE

>  <INCHI_KEY>
BGDKAVGWHJFAGW-UHFFFAOYSA-N

>  <Reference>
Mitigating the inhibition of human Bile Salt Export Pump by drugs_ opportunities provided by physicochemical property modulation,  in-silico modeling and structural modification_SI

$$$$
TULOBUTEROL
  MOE2013           2D

 15 15  0  0  1  0  0  0  0  0999 V2000
    6.4950   -0.7500    0.0000 C   0  0  0  0  0  0  0  0  0  0  0  0
    5.1960    0.0000    0.0000 C   0  0  0  0  0  0  0  0  0  0  0  0
    6.1600    1.1490    0.0000 C   0  0  0  0  0  0  0  0  0  0  0  0
    4.2320    1.1490    0.0000 C   0  0  0  0  0  0  0  0  0  0  0  0
    3.8970   -0.7500    0.0000 N   0  0  0  0  0  0  0  0  0  0  0  0
    2.5980    0.0000    0.0000 C   0  0  0  0  0  0  0  0  0  0  0  0
    1.2990   -0.7500    0.0000 C   0  0  3  0  0  0  0  0  0  0  0  0
    0.0000    0.0000    0.0000 C   0  0  0  0  0  0  0  0  0  0  0  0
    0.0000    1.5000    0.0000 C   0  0  0  0  0  0  0  0  0  0  0  0
   -1.2990    2.2500    0.0000 C   0  0  0  0  0  0  0  0  0  0  0  0
   -2.5980    1.5000    0.0000 C   0  0  0  0  0  0  0  0  0  0  0  0
   -2.5980    0.0000    0.0000 C   0  0  0  0  0  0  0  0  0  0  0  0
   -1.2990   -0.7500    0.0000 C   0  0  0  0  0  0  0  0  0  0  0  0
   -1.2990   -2.2500    0.0000 Cl  0  0  0  0  0  0  0  0  0  0  0  0
    1.2990   -2.2500    0.0000 O   0  0  0  0  0  0  0  0  0  0  0  0
  1  2  1  0  0  0  0
  2  3  1  0  0  0  0
  2  4  1  0  0  0  0
  2  5  1  0  0  0  0
  5  6  1  0  0  0  0
  6  7  1  0  0  0  0
  7  8  1  0  0  0  0
  7 15  1  0  0  0  0
  8  9  1  0  0  0  0
  8 13  2  0  0  0  0
  9 10  2  0  0  0  0
 10 11  1  0  0  0  0
 11 12  2  0  0  0  0
 12 13  1  0  0  0  0
 13 14  1  0  0  0  0
M  END
>  <n>
605

>  <SMILES>
Clc1ccccc1C(O)CNC(C)(C)C

>  <IC50>
>1000

>  <Class>
0

>  <NAME>
TULOBUTEROL

>  <INCHI_KEY>
YREYLAVBNPACJM-UHFFFAOYSA-N

>  <Reference>
Mitigating the inhibition of human Bile Salt Export Pump by drugs_ opportunities provided by physicochemical property modulation,  in-silico modeling and structural modification_SI

$$$$
Valinomycin
  MOE2013           2D

 78 78  0  0  1  0  0  0  0  0999 V2000
    0.0000    0.0000    0.0000 C   0  0  3  0  0  0  0  0  0  0  0  0
    0.0000    1.5000    0.0000 C   0  0  0  0  0  0  0  0  0  0  0  0
   -0.2600    2.9770    0.0000 N   0  0  0  0  0  0  0  0  0  0  0  0
   -0.7740    4.3870    0.0000 C   0  0  3  0  0  0  0  0  0  0  0  0
   -1.5240    5.6860    0.0000 C   0  0  0  0  0  0  0  0  0  0  0  0
   -2.4880    6.8350    0.0000 O   0  0  0  0  0  0  0  0  0  0  0  0
   -3.6370    7.7990    0.0000 C   0  0  3  0  0  0  0  0  0  0  0  0
   -4.9360    8.5490    0.0000 C   0  0  0  0  0  0  0  0  0  0  0  0
   -6.3450    9.0620    0.0000 N   0  0  0  0  0  0  0  0  0  0  0  0
   -7.8220    9.3220    0.0000 C   0  0  3  0  0  0  0  0  0  0  0  0
   -9.3220    9.3220    0.0000 C   0  0  0  0  0  0  0  0  0  0  0  0
  -10.8000    9.0620    0.0000 O   0  0  0  0  0  0  0  0  0  0  0  0
  -12.2090    8.5490    0.0000 C   0  0  3  0  0  0  0  0  0  0  0  0
  -13.5080    7.7990    0.0000 C   0  0  0  0  0  0  0  0  0  0  0  0
  -14.6570    6.8350    0.0000 N   0  0  0  0  0  0  0  0  0  0  0  0
  -15.6220    5.6860    0.0000 C   0  0  3  0  0  0  0  0  0  0  0  0
  -16.3720    4.3870    0.0000 C   0  0  0  0  0  0  0  0  0  0  0  0
  -16.8850    2.9770    0.0000 O   0  0  0  0  0  0  0  0  0  0  0  0
  -17.1450    1.5000    0.0000 C   0  0  3  0  0  0  0  0  0  0  0  0
  -18.6390    1.6310    0.0000 C   0  0  0  0  0  0  0  0  0  0  0  0
  -17.1450    0.0000    0.0000 C   0  0  0  0  0  0  0  0  0  0  0  0
  -16.8850   -1.4770    0.0000 N   0  0  0  0  0  0  0  0  0  0  0  0
  -16.3720   -2.8870    0.0000 C   0  0  3  0  0  0  0  0  0  0  0  0
  -15.6220   -4.1860    0.0000 C   0  0  0  0  0  0  0  0  0  0  0  0
  -14.6570   -5.3350    0.0000 O   0  0  0  0  0  0  0  0  0  0  0  0
  -13.5080   -6.2990    0.0000 C   0  0  3  0  0  0  0  0  0  0  0  0
  -12.2090   -7.0490    0.0000 C   0  0  0  0  0  0  0  0  0  0  0  0
  -10.8000   -7.5620    0.0000 N   0  0  0  0  0  0  0  0  0  0  0  0
   -9.3220   -7.8220    0.0000 C   0  0  3  0  0  0  0  0  0  0  0  0
   -7.8220   -7.8220    0.0000 C   0  0  0  0  0  0  0  0  0  0  0  0
   -6.3450   -7.5620    0.0000 O   0  0  0  0  0  0  0  0  0  0  0  0
   -4.9360   -7.0490    0.0000 C   0  0  3  0  0  0  0  0  0  0  0  0
   -3.6370   -6.2990    0.0000 C   0  0  0  0  0  0  0  0  0  0  0  0
   -2.4880   -5.3350    0.0000 N   0  0  0  0  0  0  0  0  0  0  0  0
   -1.5240   -4.1860    0.0000 C   0  0  3  0  0  0  0  0  0  0  0  0
   -0.7740   -2.8870    0.0000 C   0  0  0  0  0  0  0  0  0  0  0  0
   -0.2600   -1.4770    0.0000 O   0  0  0  0  0  0  0  0  0  0  0  0
    0.5860   -3.5210    0.0000 O   0  0  0  0  0  0  0  0  0  0  0  0
   -0.2950   -5.0460    0.0000 C   0  0  0  0  0  0  0  0  0  0  0  0
    1.0650   -4.4120    0.0000 C   0  0  0  0  0  0  0  0  0  0  0  0
   -0.4260   -6.5400    0.0000 C   0  0  0  0  0  0  0  0  0  0  0  0
   -2.7760   -7.5280    0.0000 O   0  0  0  0  0  0  0  0  0  0  0  0
   -4.3020   -8.4080    0.0000 C   0  0  0  0  0  0  0  0  0  0  0  0
   -7.6920   -9.3170    0.0000 O   0  0  0  0  0  0  0  0  0  0  0  0
   -9.4530   -9.3170    0.0000 C   0  0  0  0  0  0  0  0  0  0  0  0
  -10.8130   -9.9510    0.0000 C   0  0  0  0  0  0  0  0  0  0  0  0
   -8.2240  -10.1770    0.0000 C   0  0  0  0  0  0  0  0  0  0  0  0
  -12.8430   -8.4080    0.0000 O   0  0  0  0  0  0  0  0  0  0  0  0
  -14.3690   -7.5280    0.0000 C   0  0  0  0  0  0  0  0  0  0  0  0
  -15.8630   -7.3970    0.0000 C   0  0  0  0  0  0  0  0  0  0  0  0
  -13.7350   -8.8870    0.0000 C   0  0  0  0  0  0  0  0  0  0  0  0
  -16.8500   -5.0460    0.0000 O   0  0  0  0  0  0  0  0  0  0  0  0
  -17.7310   -3.5210    0.0000 C   0  0  0  0  0  0  0  0  0  0  0  0
  -18.9600   -2.6600    0.0000 C   0  0  0  0  0  0  0  0  0  0  0  0
  -17.8620   -5.0150    0.0000 C   0  0  0  0  0  0  0  0  0  0  0  0
  -18.6390   -0.1310    0.0000 O   0  0  0  0  0  0  0  0  0  0  0  0
  -17.7310    5.0210    0.0000 O   0  0  0  0  0  0  0  0  0  0  0  0
  -16.8500    6.5460    0.0000 C   0  0  0  0  0  0  0  0  0  0  0  0
  -16.7200    8.0400    0.0000 C   0  0  0  0  0  0  0  0  0  0  0  0
  -18.2100    5.9120    0.0000 C   0  0  0  0  0  0  0  0  0  0  0  0
  -14.3690    9.0280    0.0000 O   0  0  0  0  0  0  0  0  0  0  0  0
  -12.8430    9.9080    0.0000 C   0  0  0  0  0  0  0  0  0  0  0  0
  -11.9830   11.1370    0.0000 C   0  0  0  0  0  0  0  0  0  0  0  0
  -14.3380   10.0390    0.0000 C   0  0  0  0  0  0  0  0  0  0  0  0
   -9.4530   10.8170    0.0000 O   0  0  0  0  0  0  0  0  0  0  0  0
   -7.6920   10.8170    0.0000 C   0  0  0  0  0  0  0  0  0  0  0  0
   -6.3320   11.4510    0.0000 C   0  0  0  0  0  0  0  0  0  0  0  0
   -8.9200   11.6770    0.0000 C   0  0  0  0  0  0  0  0  0  0  0  0
   -4.3020    9.9080    0.0000 O   0  0  0  0  0  0  0  0  0  0  0  0
   -2.7760    9.0280    0.0000 C   0  0  0  0  0  0  0  0  0  0  0  0
   -0.2950    6.5460    0.0000 O   0  0  0  0  0  0  0  0  0  0  0  0
    0.5860    5.0210    0.0000 C   0  0  0  0  0  0  0  0  0  0  0  0
    1.8150    4.1600    0.0000 C   0  0  0  0  0  0  0  0  0  0  0  0
    0.7170    6.5150    0.0000 C   0  0  0  0  0  0  0  0  0  0  0  0
    1.4940    1.6310    0.0000 O   0  0  0  0  0  0  0  0  0  0  0  0
    1.4940   -0.1310    0.0000 C   0  0  0  0  0  0  0  0  0  0  0  0
    2.3550    1.0980    0.0000 C   0  0  0  0  0  0  0  0  0  0  0  0
    2.1280   -1.4900    0.0000 C   0  0  0  0  0  0  0  0  0  0  0  0
  1  2  1  0  0  0  0
  1 37  1  0  0  0  0
  1 76  1  0  0  0  0
  2  3  1  0  0  0  0
  2 75  2  0  0  0  0
  3  4  1  0  0  0  0
  4  5  1  0  0  0  0
  4 72  1  0  0  0  0
  5  6  1  0  0  0  0
  5 71  2  0  0  0  0
  6  7  1  0  0  0  0
  7  8  1  0  0  0  0
  7 70  1  0  0  0  0
  8  9  1  0  0  0  0
  8 69  2  0  0  0  0
  9 10  1  0  0  0  0
 10 11  1  0  0  0  0
 10 66  1  0  0  0  0
 11 12  1  0  0  0  0
 11 65  2  0  0  0  0
 12 13  1  0  0  0  0
 13 14  1  0  0  0  0
 13 62  1  0  0  0  0
 14 15  1  0  0  0  0
 14 61  2  0  0  0  0
 15 16  1  0  0  0  0
 16 17  1  0  0  0  0
 16 58  1  0  0  0  0
 17 18  1  0  0  0  0
 17 57  2  0  0  0  0
 18 19  1  0  0  0  0
 19 20  1  0  0  0  0
 19 21  1  0  0  0  0
 21 22  1  0  0  0  0
 21 56  2  0  0  0  0
 22 23  1  0  0  0  0
 23 24  1  0  0  0  0
 23 53  1  0  0  0  0
 24 25  1  0  0  0  0
 24 52  2  0  0  0  0
 25 26  1  0  0  0  0
 26 27  1  0  0  0  0
 26 49  1  0  0  0  0
 27 28  1  0  0  0  0
 27 48  2  0  0  0  0
 28 29  1  0  0  0  0
 29 30  1  0  0  0  0
 29 45  1  0  0  0  0
 30 31  1  0  0  0  0
 30 44  2  0  0  0  0
 31 32  1  0  0  0  0
 32 33  1  0  0  0  0
 32 43  1  0  0  0  0
 33 34  1  0  0  0  0
 33 42  2  0  0  0  0
 34 35  1  0  0  0  0
 35 36  1  0  0  0  0
 35 39  1  0  0  0  0
 36 37  1  0  0  0  0
 36 38  2  0  0  0  0
 39 40  1  0  0  0  0
 39 41  1  0  0  0  0
 45 46  1  0  0  0  0
 45 47  1  0  0  0  0
 49 50  1  0  0  0  0
 49 51  1  0  0  0  0
 53 54  1  0  0  0  0
 53 55  1  0  0  0  0
 58 59  1  0  0  0  0
 58 60  1  0  0  0  0
 62 63  1  0  0  0  0
 62 64  1  0  0  0  0
 66 67  1  0  0  0  0
 66 68  1  0  0  0  0
 72 73  1  0  0  0  0
 72 74  1  0  0  0  0
 76 77  1  0  0  0  0
 76 78  1  0  0  0  0
M  END
>  <n>
40

>  <IC50>
1.6

>  <Class>
1

>  <NAME>
VALINOMYCIN

>  <INCHI_KEY>
FCFNRCROJUBPLU-UYBNATROSA-N

>  <Reference>
Interference

$$$$
VALPROIC_ACID
  MOE2013           2D

 10  9  0  0  0  0  0  0  0  0999 V2000
    0.0000    0.0000    0.0000 C   0  0  0  0  0  0  0  0  0  0  0  0
    0.0000    1.5000    0.0000 C   0  0  0  0  0  0  0  0  0  0  0  0
   -1.2990    2.2500    0.0000 C   0  0  0  0  0  0  0  0  0  0  0  0
   -1.2990    3.7500    0.0000 C   0  0  0  0  0  0  0  0  0  0  0  0
   -2.5980    4.5000    0.0000 C   0  0  0  0  0  0  0  0  0  0  0  0
   -2.5980    6.0000    0.0000 C   0  0  0  0  0  0  0  0  0  0  0  0
   -3.8970    6.7500    0.0000 C   0  0  0  0  0  0  0  0  0  0  0  0
    0.0000    4.5000    0.0000 C   0  0  0  0  0  0  0  0  0  0  0  0
    0.0000    6.0000    0.0000 O   0  0  0  0  0  0  0  0  0  0  0  0
    1.2990    3.7500    0.0000 O   0  0  0  0  0  0  0  0  0  0  0  0
  1  2  1  0  0  0  0
  2  3  1  0  0  0  0
  3  4  1  0  0  0  0
  4  5  1  0  0  0  0
  4  8  1  0  0  0  0
  5  6  1  0  0  0  0
  6  7  1  0  0  0  0
  8  9  2  0  0  0  0
  8 10  1  0  0  0  0
M  END
>  <n>
608

>  <SMILES>
OC(=O)C(CCC)CCC

>  <IC50>
>1000

>  <Class>
0

>  <NAME>
VALPROIC ACID

>  <INCHI_KEY>
NIJJYAXOARWZEE-UHFFFAOYSA-N

>  <Reference>
Mitigating the inhibition of human Bile Salt Export Pump by drugs_ opportunities provided by physicochemical property modulation,  in-silico modeling and structural modification_SI

$$$$
VENLAFAXINE
  MOE2013           2D

 20 21  0  0  1  0  0  0  0  0999 V2000
    3.9800   -3.3400    0.0000 C   0  0  0  0  0  0  0  0  0  0  0  0
    2.5030   -3.0800    0.0000 N   0  0  0  0  0  0  0  0  0  0  0  0
    1.5390   -4.2290    0.0000 C   0  0  0  0  0  0  0  0  0  0  0  0
    1.9900   -1.6700    0.0000 C   0  0  0  0  0  0  0  0  0  0  0  0
    0.5130   -1.4100    0.0000 C   0  0  3  0  0  0  0  0  0  0  0  0
   -0.4510   -2.5590    0.0000 C   0  0  0  0  0  0  0  0  0  0  0  0
   -1.9280   -2.2980    0.0000 C   0  0  0  0  0  0  0  0  0  0  0  0
   -2.8920   -3.4470    0.0000 C   0  0  0  0  0  0  0  0  0  0  0  0
   -2.3800   -4.8570    0.0000 C   0  0  0  0  0  0  0  0  0  0  0  0
   -0.9020   -5.1170    0.0000 C   0  0  0  0  0  0  0  0  0  0  0  0
    0.0620   -3.9680    0.0000 C   0  0  0  0  0  0  0  0  0  0  0  0
   -3.3440   -6.0060    0.0000 O   0  0  0  0  0  0  0  0  0  0  0  0
   -2.8310   -7.4150    0.0000 C   0  0  0  0  0  0  0  0  0  0  0  0
    0.0000    0.0000    0.0000 C   0  0  0  0  0  0  0  0  0  0  0  0
    0.0000    1.5000    0.0000 C   0  0  0  0  0  0  0  0  0  0  0  0
   -1.2990    2.2500    0.0000 C   0  0  0  0  0  0  0  0  0  0  0  0
   -2.5980    1.5000    0.0000 C   0  0  0  0  0  0  0  0  0  0  0  0
   -2.5980    0.0000    0.0000 C   0  0  0  0  0  0  0  0  0  0  0  0
   -1.2990   -0.7500    0.0000 C   0  0  0  0  0  0  0  0  0  0  0  0
    1.4770    0.2600    0.0000 O   0  0  0  0  0  0  0  0  0  0  0  0
  1  2  1  0  0  0  0
  2  3  1  0  0  0  0
  2  4  1  0  0  0  0
  4  5  1  0  0  0  0
  5  6  1  0  0  0  0
  5 14  1  0  0  0  0
  6  7  1  0  0  0  0
  6 11  2  0  0  0  0
  7  8  2  0  0  0  0
  8  9  1  0  0  0  0
  9 10  2  0  0  0  0
  9 12  1  0  0  0  0
 10 11  1  0  0  0  0
 12 13  1  0  0  0  0
 14 15  1  0  0  0  0
 14 19  1  0  0  0  0
 14 20  1  0  0  0  0
 15 16  1  0  0  0  0
 16 17  1  0  0  0  0
 17 18  1  0  0  0  0
 18 19  1  0  0  0  0
M  END
>  <n>
609

>  <SMILES>
O(C)c1ccc(cc1)C(CN(C)C)C1(O)CCCCC1

>  <IC50>
>1000

>  <Class>
0

>  <NAME>
VENLAFAXINE

>  <INCHI_KEY>
PNVNVHUZROJLTJ-UHFFFAOYSA-N

>  <Reference>
Mitigating the inhibition of human Bile Salt Export Pump by drugs_ opportunities provided by physicochemical property modulation,  in-silico modeling and structural modification_SI

$$$$
mol611
  MOE2013           2D

 28 31  0  0  0  0  0  0  0  0999 V2000
    5.1960    1.5000    0.0000 C   0  0  0  0  0  0  0  0  0  0  0  0
    3.8970    2.2500    0.0000 C   0  0  0  0  0  0  0  0  0  0  0  0
    2.5980    1.5000    0.0000 C   0  0  0  0  0  0  0  0  0  0  0  0
    2.5980    0.0000    0.0000 C   0  0  0  0  0  0  0  0  0  0  0  0
    3.8970   -0.7500    0.0000 C   0  0  0  0  0  0  0  0  0  0  0  0
    5.1960    0.0000    0.0000 C   0  0  0  0  0  0  0  0  0  0  0  0
    3.8970   -2.2500    0.0000 Cl  0  0  0  0  0  0  0  0  0  0  0  0
    1.2990   -0.7500    0.0000 C   0  0  0  0  0  0  0  0  0  0  0  0
    0.0000    0.0000    0.0000 C   0  0  0  0  0  0  0  0  0  0  0  0
    0.0000    1.5000    0.0000 C   0  0  0  0  0  0  0  0  0  0  0  0
   -1.2990    2.2500    0.0000 C   0  0  0  0  0  0  0  0  0  0  0  0
   -2.5980    1.5000    0.0000 C   0  0  0  0  0  0  0  0  0  0  0  0
   -2.5980    0.0000    0.0000 N   0  0  0  0  0  0  0  0  0  0  0  0
   -1.2990   -0.7500    0.0000 N   0  0  0  0  0  0  0  0  0  0  0  0
   -1.2990   -2.2500    0.0000 C   0  0  0  0  0  0  0  0  0  0  0  0
    0.0000   -3.0000    0.0000 N   0  0  0  0  0  0  0  0  0  0  0  0
    1.2990   -2.2500    0.0000 C   0  0  0  0  0  0  0  0  0  0  0  0
    2.5980   -3.0000    0.0000 O   0  0  0  0  0  0  0  0  0  0  0  0
   -3.8970    2.2500    0.0000 S   0  0  0  0  0  0  0  0  0  0  0  0
   -5.1960    1.5000    0.0000 C   0  0  0  0  0  0  0  0  0  0  0  0
   -6.4950    2.2500    0.0000 C   0  0  0  0  0  0  0  0  0  0  0  0
   -7.7940    1.5000    0.0000 C   0  0  0  0  0  0  0  0  0  0  0  0
   -7.7940    0.0000    0.0000 C   0  0  0  0  0  0  0  0  0  0  0  0
   -6.4950   -0.7500    0.0000 C   0  0  0  0  0  0  0  0  0  0  0  0
   -5.1960    0.0000    0.0000 C   0  0  0  0  0  0  0  0  0  0  0  0
   -3.8970   -0.7500    0.0000 F   0  0  0  0  0  0  0  0  0  0  0  0
   -9.0930   -0.7500    0.0000 F   0  0  0  0  0  0  0  0  0  0  0  0
    1.2990    2.2500    0.0000 Cl  0  0  0  0  0  0  0  0  0  0  0  0
  1  2  1  0  0  0  0
  1  6  2  0  0  0  0
  2  3  2  0  0  0  0
  3  4  1  0  0  0  0
  3 28  1  0  0  0  0
  4  5  2  0  0  0  0
  4  8  1  0  0  0  0
  5  6  1  0  0  0  0
  5  7  1  0  0  0  0
  8  9  2  0  0  0  0
  8 17  1  0  0  0  0
  9 10  1  0  0  0  0
  9 14  1  0  0  0  0
 10 11  2  0  0  0  0
 11 12  1  0  0  0  0
 12 13  2  0  0  0  0
 12 19  1  0  0  0  0
 13 14  1  0  0  0  0
 14 15  1  0  0  0  0
 15 16  2  0  0  0  0
 16 17  1  0  0  0  0
 17 18  2  0  0  0  0
 19 20  1  0  0  0  0
 20 21  1  0  0  0  0
 20 25  2  0  0  0  0
 21 22  2  0  0  0  0
 22 23  1  0  0  0  0
 23 24  2  0  0  0  0
 23 27  1  0  0  0  0
 24 25  1  0  0  0  0
 25 26  1  0  0  0  0
M  END
>  <n>
611

>  <SMILES>
Clc1cccc(Cl)c1C1=C2N(N=C(Sc3ccc(F)cc3F)C=C2)C=NC1=O

>  <IC50>
<10

>  <Class>
1

>  <NAME>
VX 745

>  <INCHI_KEY>
VEPKQEUBKLEPRA-UHFFFAOYSA-N

>  <Reference>
Mitigating the inhibition of human Bile Salt Export Pump by drugs_ opportunities provided by physicochemical property modulation,  in-silico modeling and structural modification_SI

$$$$
WARFARIN
  MOE2013           2D

 23 25  0  0  1  0  0  0  0  0999 V2000
    3.8970   -6.7500    0.0000 C   0  0  0  0  0  0  0  0  0  0  0  0
    3.8970   -5.2500    0.0000 C   0  0  0  0  0  0  0  0  0  0  0  0
    5.1960   -4.5000    0.0000 O   0  0  0  0  0  0  0  0  0  0  0  0
    2.5980   -4.5000    0.0000 C   0  0  0  0  0  0  0  0  0  0  0  0
    2.5980   -3.0000    0.0000 C   0  0  3  0  0  0  0  0  0  0  0  0
    3.8970   -2.2500    0.0000 C   0  0  0  0  0  0  0  0  0  0  0  0
    5.1960   -3.0000    0.0000 C   0  0  0  0  0  0  0  0  0  0  0  0
    6.4950   -2.2500    0.0000 C   0  0  0  0  0  0  0  0  0  0  0  0
    6.4950   -0.7500    0.0000 C   0  0  0  0  0  0  0  0  0  0  0  0
    5.1960    0.0000    0.0000 C   0  0  0  0  0  0  0  0  0  0  0  0
    3.8970   -0.7500    0.0000 C   0  0  0  0  0  0  0  0  0  0  0  0
    1.2990   -2.2500    0.0000 C   0  0  0  0  0  0  0  0  0  0  0  0
    1.2990   -0.7500    0.0000 C   0  0  0  0  0  0  0  0  0  0  0  0
    0.0000    0.0000    0.0000 C   0  0  0  0  0  0  0  0  0  0  0  0
    0.0000    1.5000    0.0000 C   0  0  0  0  0  0  0  0  0  0  0  0
   -1.2990    2.2500    0.0000 C   0  0  0  0  0  0  0  0  0  0  0  0
   -2.5980    1.5000    0.0000 C   0  0  0  0  0  0  0  0  0  0  0  0
   -2.5980    0.0000    0.0000 C   0  0  0  0  0  0  0  0  0  0  0  0
   -1.2990   -0.7500    0.0000 C   0  0  0  0  0  0  0  0  0  0  0  0
   -1.2990   -2.2500    0.0000 O   0  0  0  0  0  0  0  0  0  0  0  0
    0.0000   -3.0000    0.0000 C   0  0  0  0  0  0  0  0  0  0  0  0
    0.0000   -4.5000    0.0000 O   0  0  0  0  0  0  0  0  0  0  0  0
    2.5980    0.0000    0.0000 O   0  0  0  0  0  0  0  0  0  0  0  0
  1  2  1  0  0  0  0
  2  3  2  0  0  0  0
  2  4  1  0  0  0  0
  4  5  1  0  0  0  0
  5  6  1  0  0  0  0
  5 12  1  0  0  0  0
  6  7  1  0  0  0  0
  6 11  2  0  0  0  0
  7  8  2  0  0  0  0
  8  9  1  0  0  0  0
  9 10  2  0  0  0  0
 10 11  1  0  0  0  0
 12 13  2  0  0  0  0
 12 21  1  0  0  0  0
 13 14  1  0  0  0  0
 13 23  1  0  0  0  0
 14 15  1  0  0  0  0
 14 19  2  0  0  0  0
 15 16  2  0  0  0  0
 16 17  1  0  0  0  0
 17 18  2  0  0  0  0
 18 19  1  0  0  0  0
 19 20  1  0  0  0  0
 20 21  1  0  0  0  0
 21 22  2  0  0  0  0
M  END
>  <n>
612

>  <SMILES>
O1c2c(cccc2)C(O)=C(C(CC(=O)C)c2ccccc2)C1=O

>  <IC50>
115.3

>  <Class>
0

>  <NAME>
WARFARIN

>  <INCHI_KEY>
PJVWKTKQMONHTI-UHFFFAOYSA-N

>  <Reference>
Mitigating the inhibition of human Bile Salt Export Pump by drugs_ opportunities provided by physicochemical property modulation,  in-silico modeling and structural modification_SI

$$$$
XALIPRODEN
  MOE2013           2D

 28 31  0  0  1  0  0  0  0  0999 V2000
    0.0000   -3.0000    0.0000 C   0  0  0  0  0  0  0  0  0  0  0  0
    1.2990   -2.2500    0.0000 C   0  0  0  0  0  0  0  0  0  0  0  0
    1.2990   -0.7500    0.0000 C   0  0  0  0  0  0  0  0  0  0  0  0
    0.0000    0.0000    0.0000 C   0  0  0  0  0  0  0  0  0  0  0  0
    0.0000    1.5000    0.0000 C   0  0  0  0  0  0  0  0  0  0  0  0
   -1.2990    2.2500    0.0000 C   0  0  0  0  0  0  0  0  0  0  0  0
   -2.5980    1.5000    0.0000 C   0  0  0  0  0  0  0  0  0  0  0  0
   -2.5980    0.0000    0.0000 C   0  0  0  0  0  0  0  0  0  0  0  0
   -1.2990   -0.7500    0.0000 C   0  0  0  0  0  0  0  0  0  0  0  0
   -1.2990   -2.2500    0.0000 C   0  0  0  0  0  0  0  0  0  0  0  0
   -1.2990    3.7500    0.0000 C   0  0  0  0  0  0  0  0  0  0  0  0
   -2.5980    4.5000    0.0000 C   0  0  0  0  0  0  0  0  0  0  0  0
   -2.5980    6.0000    0.0000 N   0  0  3  0  0  0  0  0  0  0  0  0
   -1.2990    6.7500    0.0000 C   0  0  0  0  0  0  0  0  0  0  0  0
   -1.2990    8.2500    0.0000 C   0  0  0  0  0  0  0  0  0  0  0  0
   -2.5980    9.0000    0.0000 C   0  0  0  0  0  0  0  0  0  0  0  0
   -3.8970    8.2500    0.0000 C   0  0  0  0  0  0  0  0  0  0  0  0
   -3.8970    6.7500    0.0000 C   0  0  0  0  0  0  0  0  0  0  0  0
   -2.5980   10.5000    0.0000 C   0  0  0  0  0  0  0  0  0  0  0  0
   -1.2990   11.2500    0.0000 C   0  0  0  0  0  0  0  0  0  0  0  0
   -1.2990   12.7500    0.0000 C   0  0  0  0  0  0  0  0  0  0  0  0
   -2.5980   13.5000    0.0000 C   0  0  0  0  0  0  0  0  0  0  0  0
   -3.8970   12.7500    0.0000 C   0  0  0  0  0  0  0  0  0  0  0  0
   -3.8970   11.2500    0.0000 C   0  0  0  0  0  0  0  0  0  0  0  0
   -5.1960   13.5000    0.0000 C   0  0  0  0  0  0  0  0  0  0  0  0
   -5.1960   15.0000    0.0000 F   0  0  0  0  0  0  0  0  0  0  0  0
   -6.6730   13.7600    0.0000 F   0  0  0  0  0  0  0  0  0  0  0  0
   -5.7090   12.0900    0.0000 F   0  0  0  0  0  0  0  0  0  0  0  0
  1  2  1  0  0  0  0
  1 10  2  0  0  0  0
  2  3  2  0  0  0  0
  3  4  1  0  0  0  0
  4  5  1  0  0  0  0
  4  9  2  0  0  0  0
  5  6  2  0  0  0  0
  6  7  1  0  0  0  0
  6 11  1  0  0  0  0
  7  8  2  0  0  0  0
  8  9  1  0  0  0  0
  9 10  1  0  0  0  0
 11 12  1  0  0  0  0
 12 13  1  0  0  0  0
 13 14  1  0  0  0  0
 13 18  1  0  0  0  0
 14 15  1  0  0  0  0
 15 16  1  0  0  0  0
 16 17  2  0  0  0  0
 16 19  1  0  0  0  0
 17 18  1  0  0  0  0
 19 20  1  0  0  0  0
 19 24  2  0  0  0  0
 20 21  2  0  0  0  0
 21 22  1  0  0  0  0
 22 23  2  0  0  0  0
 23 24  1  0  0  0  0
 23 25  1  0  0  0  0
 25 26  1  0  0  0  0
 25 27  1  0  0  0  0
 25 28  1  0  0  0  0
M  END
>  <n>
613

>  <SMILES>
FC(F)(F)c1cc(ccc1)C=1CCN(CC=1)CCc1cc2c(cc1)cccc2

>  <IC50>
117.1

>  <Class>
0

>  <NAME>
XALIPRODEN

>  <INCHI_KEY>
WJJYZXPHLSLMGE-UHFFFAOYSA-N

>  <Reference>
Mitigating the inhibition of human Bile Salt Export Pump by drugs_ opportunities provided by physicochemical property modulation,  in-silico modeling and structural modification_SI

$$$$
XANTRYL
  MOE2013           2D

 33 37  0  0  0  0  0  0  0  0999 V2000
    1.2990   -0.7500    0.0000 C   0  0  0  0  0  0  0  0  0  0  0  0
    0.0000    0.0000    0.0000 C   0  0  0  0  0  0  0  0  0  0  0  0
    0.0000    1.5000    0.0000 C   0  0  0  0  0  0  0  0  0  0  0  0
    1.2990    2.2500    0.0000 C   0  0  0  0  0  0  0  0  0  0  0  0
    2.5980    1.5000    0.0000 C   0  0  0  0  0  0  0  0  0  0  0  0
    2.5980    0.0000    0.0000 C   0  0  0  0  0  0  0  0  0  0  0  0
    3.8970   -0.7500    0.0000 I   0  0  0  0  0  0  0  0  0  0  0  0
    3.8970    2.2500    0.0000 O   0  0  0  0  0  0  0  0  0  0  0  0
    1.2990    3.7500    0.0000 I   0  0  0  0  0  0  0  0  0  0  0  0
   -1.2990    2.2500    0.0000 O   0  0  0  0  0  0  0  0  0  0  0  0
   -2.5980    1.5000    0.0000 C   0  0  0  0  0  0  0  0  0  0  0  0
   -2.5980    0.0000    0.0000 C   0  0  0  0  0  0  0  0  0  0  0  0
   -3.8970   -0.7500    0.0000 C   0  0  0  0  0  0  0  0  0  0  0  0
   -5.1960    0.0000    0.0000 C   0  0  0  0  0  0  0  0  0  0  0  0
   -5.1960    1.5000    0.0000 C   0  0  0  0  0  0  0  0  0  0  0  0
   -3.8970    2.2500    0.0000 C   0  0  0  0  0  0  0  0  0  0  0  0
   -3.8970    3.7500    0.0000 I   0  0  0  0  0  0  0  0  0  0  0  0
   -6.4950    2.2500    0.0000 O   0  0  0  0  0  0  0  0  0  0  0  0
   -6.4950   -0.7500    0.0000 I   0  0  0  0  0  0  0  0  0  0  0  0
   -1.2990   -0.7500    0.0000 C   0  0  0  0  0  0  0  0  0  0  0  0
   -0.0860   -1.6320    0.0000 C   0  0  0  0  0  0  0  0  0  0  0  0
   -0.5490   -3.0580    0.0000 C   0  0  0  0  0  0  0  0  0  0  0  0
    0.4550   -4.1730    0.0000 C   0  0  0  0  0  0  0  0  0  0  0  0
    1.9220   -3.8610    0.0000 C   0  0  0  0  0  0  0  0  0  0  0  0
    2.3850   -2.4340    0.0000 C   0  0  0  0  0  0  0  0  0  0  0  0
    1.3820   -1.3200    0.0000 C   0  0  0  0  0  0  0  0  0  0  0  0
    1.8450    0.1070    0.0000 Cl  0  0  0  0  0  0  0  0  0  0  0  0
    3.8530   -2.1230    0.0000 Cl  0  0  0  0  0  0  0  0  0  0  0  0
    2.9260   -4.9760    0.0000 Cl  0  0  0  0  0  0  0  0  0  0  0  0
   -0.0090   -5.6000    0.0000 Cl  0  0  0  0  0  0  0  0  0  0  0  0
   -2.0490   -3.0580    0.0000 C   0  0  0  0  0  0  0  0  0  0  0  0
   -2.9310   -4.2720    0.0000 O   0  0  0  0  0  0  0  0  0  0  0  0
   -2.5130   -1.6320    0.0000 O   0  0  0  0  0  0  0  0  0  0  0  0
  1  2  1  0  0  0  0
  1  6  2  0  0  0  0
  2  3  2  0  0  0  0
  2 20  1  0  0  0  0
  3  4  1  0  0  0  0
  3 10  1  0  0  0  0
  4  5  2  0  0  0  0
  4  9  1  0  0  0  0
  5  6  1  0  0  0  0
  5  8  1  0  0  0  0
  6  7  1  0  0  0  0
 10 11  1  0  0  0  0
 11 12  1  0  0  0  0
 11 16  2  0  0  0  0
 12 13  2  0  0  0  0
 12 20  1  0  0  0  0
 13 14  1  0  0  0  0
 14 15  2  0  0  0  0
 14 19  1  0  0  0  0
 15 16  1  0  0  0  0
 15 18  1  0  0  0  0
 16 17  1  0  0  0  0
 20 21  1  0  0  0  0
 20 33  1  0  0  0  0
 21 22  1  0  0  0  0
 21 26  2  0  0  0  0
 22 23  2  0  0  0  0
 22 31  1  0  0  0  0
 23 24  1  0  0  0  0
 23 30  1  0  0  0  0
 24 25  2  0  0  0  0
 24 29  1  0  0  0  0
 25 26  1  0  0  0  0
 25 28  1  0  0  0  0
 26 27  1  0  0  0  0
 31 32  2  0  0  0  0
 31 33  1  0  0  0  0
M  END
>  <n>
614

>  <SMILES>
Ic1c2Oc3c(cc(I)c(O)c3I)C3(OC(=O)c4c3c(Cl)c(Cl)c(Cl)c4Cl)c2cc(I)c1O

>  <IC50>
<10

>  <Class>
1

>  <NAME>
XANTRYL

>  <INCHI_KEY>
IICCLYANAQEHCI-UHFFFAOYSA-N

>  <Reference>
Mitigating the inhibition of human Bile Salt Export Pump by drugs_ opportunities provided by physicochemical property modulation,  in-silico modeling and structural modification_SI

$$$$
XYLAZINE
  MOE2013           2D

 15 16  0  0  0  0  0  0  0  0999 V2000
    1.2990   -0.7500    0.0000 C   0  0  0  0  0  0  0  0  0  0  0  0
    0.0000    0.0000    0.0000 C   0  0  0  0  0  0  0  0  0  0  0  0
    0.0000    1.5000    0.0000 C   0  0  0  0  0  0  0  0  0  0  0  0
   -1.2990    2.2500    0.0000 C   0  0  0  0  0  0  0  0  0  0  0  0
   -2.5980    1.5000    0.0000 C   0  0  0  0  0  0  0  0  0  0  0  0
   -2.5980    0.0000    0.0000 C   0  0  0  0  0  0  0  0  0  0  0  0
   -1.2990   -0.7500    0.0000 C   0  0  0  0  0  0  0  0  0  0  0  0
   -1.2990   -2.2500    0.0000 N   0  0  0  0  0  0  0  0  0  0  0  0
    0.0000   -3.0000    0.0000 C   0  0  0  0  0  0  0  0  0  0  0  0
    0.0000   -4.5000    0.0000 N   0  0  0  0  0  0  0  0  0  0  0  0
    1.2990   -5.2500    0.0000 C   0  0  0  0  0  0  0  0  0  0  0  0
    2.5980   -4.5000    0.0000 C   0  0  0  0  0  0  0  0  0  0  0  0
    2.5980   -3.0000    0.0000 C   0  0  0  0  0  0  0  0  0  0  0  0
    1.2990   -2.2500    0.0000 S   0  0  0  0  0  0  0  0  0  0  0  0
   -3.8970   -0.7500    0.0000 C   0  0  0  0  0  0  0  0  0  0  0  0
  1  2  1  0  0  0  0
  2  3  1  0  0  0  0
  2  7  2  0  0  0  0
  3  4  2  0  0  0  0
  4  5  1  0  0  0  0
  5  6  2  0  0  0  0
  6  7  1  0  0  0  0
  6 15  1  0  0  0  0
  7  8  1  0  0  0  0
  8  9  1  0  0  0  0
  9 10  2  0  0  0  0
  9 14  1  0  0  0  0
 10 11  1  0  0  0  0
 11 12  1  0  0  0  0
 12 13  1  0  0  0  0
 13 14  1  0  0  0  0
M  END
>  <n>
615

>  <SMILES>
S1CCCN=C1Nc1c(cccc1C)C

>  <IC50>
>1000

>  <Class>
0

>  <NAME>
XYLAZINE

>  <INCHI_KEY>
BPICBUSOMSTKRF-UHFFFAOYSA-N

>  <Reference>
Mitigating the inhibition of human Bile Salt Export Pump by drugs_ opportunities provided by physicochemical property modulation,  in-silico modeling and structural modification_SI

$$$$
XYLOMETAZOLINE
  MOE2013           2D

 18 19  0  0  0  0  0  0  0  0999 V2000
    3.6410   -2.6450    0.0000 C   0  0  0  0  0  0  0  0  0  0  0  0
    3.7970   -1.1530    0.0000 C   0  0  0  0  0  0  0  0  0  0  0  0
    5.1680   -0.5430    0.0000 C   0  0  0  0  0  0  0  0  0  0  0  0
    5.3240    0.9490    0.0000 C   0  0  0  0  0  0  0  0  0  0  0  0
    4.1110    1.8300    0.0000 C   0  0  0  0  0  0  0  0  0  0  0  0
    2.7410    1.2200    0.0000 C   0  0  0  0  0  0  0  0  0  0  0  0
    2.5840   -0.2720    0.0000 C   0  0  0  0  0  0  0  0  0  0  0  0
    1.2140   -0.8820    0.0000 C   0  0  0  0  0  0  0  0  0  0  0  0
    0.0000    0.0000    0.0000 C   0  0  0  0  0  0  0  0  0  0  0  0
    0.0000    1.5000    0.0000 N   0  0  0  0  0  0  0  0  0  0  0  0
   -1.4270    1.9640    0.0000 C   0  0  0  0  0  0  0  0  0  0  0  0
   -2.3080    0.7500    0.0000 C   0  0  0  0  0  0  0  0  0  0  0  0
   -1.4270   -0.4640    0.0000 N   0  0  0  0  0  0  0  0  0  0  0  0
    1.5270    2.1020    0.0000 C   0  0  0  0  0  0  0  0  0  0  0  0
    6.6950    1.5590    0.0000 C   0  0  0  0  0  0  0  0  0  0  0  0
    7.9080    0.6770    0.0000 C   0  0  0  0  0  0  0  0  0  0  0  0
    7.7740    2.6010    0.0000 C   0  0  0  0  0  0  0  0  0  0  0  0
    5.8560    2.8020    0.0000 C   0  0  0  0  0  0  0  0  0  0  0  0
  1  2  1  0  0  0  0
  2  3  1  0  0  0  0
  2  7  2  0  0  0  0
  3  4  2  0  0  0  0
  4  5  1  0  0  0  0
  4 15  1  0  0  0  0
  5  6  2  0  0  0  0
  6  7  1  0  0  0  0
  6 14  1  0  0  0  0
  7  8  1  0  0  0  0
  8  9  1  0  0  0  0
  9 10  2  0  0  0  0
  9 13  1  0  0  0  0
 10 11  1  0  0  0  0
 11 12  1  0  0  0  0
 12 13  1  0  0  0  0
 15 16  1  0  0  0  0
 15 17  1  0  0  0  0
 15 18  1  0  0  0  0
M  END
>  <n>
616

>  <SMILES>
N1CCN=C1Cc1c(cc(cc1C)C(C)(C)C)C

>  <IC50>
>796.1

>  <Class>
0

>  <NAME>
XYLOMETAZOLINE

>  <INCHI_KEY>
HUCJFAOMUPXHDK-UHFFFAOYSA-N

>  <Reference>
Mitigating the inhibition of human Bile Salt Export Pump by drugs_ opportunities provided by physicochemical property modulation,  in-silico modeling and structural modification_SI

$$$$
mol617
  MOE2013           2D

 26 28  0  0  1  0  0  0  0  0999 V2000
    3.8970   -2.2500    0.0000 C   0  0  0  0  0  0  0  0  0  0  0  0
    2.5980   -3.0000    0.0000 C   0  0  3  0  0  0  0  0  0  0  0  0
    2.5980   -4.5000    0.0000 C   0  0  0  0  0  0  0  0  0  0  0  0
    3.8970   -5.2500    0.0000 C   0  0  0  0  0  0  0  0  0  0  0  0
    3.8970   -6.7500    0.0000 O   0  0  0  0  0  0  0  0  0  0  0  0
    5.1960   -4.5000    0.0000 O   0  0  0  0  0  0  0  0  0  0  0  0
    1.2990   -2.2500    0.0000 C   0  0  0  0  0  0  0  0  0  0  0  0
    1.2990   -0.7500    0.0000 O   0  0  0  0  0  0  0  0  0  0  0  0
    0.0000    0.0000    0.0000 C   0  0  0  0  0  0  0  0  0  0  0  0
    0.0000    1.5000    0.0000 C   0  0  0  0  0  0  0  0  0  0  0  0
   -1.2990    2.2500    0.0000 C   0  0  0  0  0  0  0  0  0  0  0  0
   -2.5980    1.5000    0.0000 C   0  0  0  0  0  0  0  0  0  0  0  0
   -2.5980    0.0000    0.0000 C   0  0  0  0  0  0  0  0  0  0  0  0
   -1.2990   -0.7500    0.0000 C   0  0  0  0  0  0  0  0  0  0  0  0
   -3.8970    2.2500    0.0000 N   0  0  0  0  0  0  0  0  0  0  0  0
   -3.8970    3.7500    0.0000 C   0  0  0  0  0  0  0  0  0  0  0  0
   -5.1960    4.5000    0.0000 C   0  0  0  0  0  0  0  0  0  0  0  0
   -6.4950    3.7500    0.0000 N   0  0  0  0  0  0  0  0  0  0  0  0
   -6.4950    2.2500    0.0000 C   0  0  0  0  0  0  0  0  0  0  0  0
   -5.1960    1.5000    0.0000 C   0  0  0  0  0  0  0  0  0  0  0  0
   -7.7940    4.5000    0.0000 C   0  0  0  0  0  0  0  0  0  0  0  0
   -7.7940    6.0000    0.0000 C   0  0  0  0  0  0  0  0  0  0  0  0
   -9.0930    6.7500    0.0000 C   0  0  0  0  0  0  0  0  0  0  0  0
  -10.3920    6.0000    0.0000 N   0  0  0  0  0  0  0  0  0  0  0  0
  -10.3920    4.5000    0.0000 C   0  0  0  0  0  0  0  0  0  0  0  0
   -9.0930    3.7500    0.0000 C   0  0  0  0  0  0  0  0  0  0  0  0
  1  2  1  0  0  0  0
  2  3  1  0  0  0  0
  2  7  1  0  0  0  0
  3  4  1  0  0  0  0
  4  5  2  0  0  0  0
  4  6  1  0  0  0  0
  7  8  1  0  0  0  0
  8  9  1  0  0  0  0
  9 10  1  0  0  0  0
  9 14  2  0  0  0  0
 10 11  2  0  0  0  0
 11 12  1  0  0  0  0
 12 13  2  0  0  0  0
 12 15  1  0  0  0  0
 13 14  1  0  0  0  0
 15 16  1  0  0  0  0
 15 20  1  0  0  0  0
 16 17  1  0  0  0  0
 17 18  1  0  0  0  0
 18 19  1  0  0  0  0
 18 21  1  0  0  0  0
 19 20  1  0  0  0  0
 21 22  1  0  0  0  0
 21 26  2  0  0  0  0
 22 23  2  0  0  0  0
 23 24  1  0  0  0  0
 24 25  2  0  0  0  0
 25 26  1  0  0  0  0
M  END
>  <n>
617

>  <SMILES>
O(C[C@@H](CC(O)=O)C)c1ccc(N2CCN(CC2)c2ccncc2)cc1

>  <IC50>
>1000

>  <Class>
0

>  <NAME>
ZD-2486

>  <INCHI_KEY>
RVVTUJLHUHZYOD-MRXNPFEDSA-N

>  <Reference>
Mitigating the inhibition of human Bile Salt Export Pump by drugs_ opportunities provided by physicochemical property modulation,  in-silico modeling and structural modification_SI

$$$$
mol620
  MOE2013           2D

 27 30  0  0  0  0  0  0  0  0999 V2000
    2.5980   -3.0000    0.0000 C   0  0  0  0  0  0  0  0  0  0  0  0
    3.8970   -2.2500    0.0000 C   0  0  0  0  0  0  0  0  0  0  0  0
    5.1960   -3.0000    0.0000 C   0  0  0  0  0  0  0  0  0  0  0  0
    6.4950   -2.2500    0.0000 C   0  0  0  0  0  0  0  0  0  0  0  0
    6.4950   -0.7500    0.0000 C   0  0  0  0  0  0  0  0  0  0  0  0
    5.1960    0.0000    0.0000 C   0  0  0  0  0  0  0  0  0  0  0  0
    3.8970   -0.7500    0.0000 C   0  0  0  0  0  0  0  0  0  0  0  0
    2.5980    0.0000    0.0000 N   0  0  0  0  0  0  0  0  0  0  0  0
    1.2990   -0.7500    0.0000 C   0  0  0  0  0  0  0  0  0  0  0  0
    1.2990   -2.2500    0.0000 O   0  0  0  0  0  0  0  0  0  0  0  0
    0.0000    0.0000    0.0000 C   0  0  0  0  0  0  0  0  0  0  0  0
    0.0000    1.5000    0.0000 C   0  0  0  0  0  0  0  0  0  0  0  0
    1.2990    2.2500    0.0000 C   0  0  0  0  0  0  0  0  0  0  0  0
    1.2990    3.7500    0.0000 O   0  0  0  0  0  0  0  0  0  0  0  0
    2.5980    1.5000    0.0000 N   0  0  0  0  0  0  0  0  0  0  0  0
   -1.2990    2.2500    0.0000 N   0  0  0  0  0  0  0  0  0  0  0  0
   -2.5980    1.5000    0.0000 C   0  0  0  0  0  0  0  0  0  0  0  0
   -3.8970    2.2500    0.0000 C   0  0  0  0  0  0  0  0  0  0  0  0
   -5.1960    1.5000    0.0000 C   0  0  0  0  0  0  0  0  0  0  0  0
   -5.1960    0.0000    0.0000 C   0  0  0  0  0  0  0  0  0  0  0  0
   -3.8970   -0.7500    0.0000 C   0  0  0  0  0  0  0  0  0  0  0  0
   -2.5980    0.0000    0.0000 C   0  0  0  0  0  0  0  0  0  0  0  0
   -1.2990   -0.7500    0.0000 C   0  0  0  0  0  0  0  0  0  0  0  0
   -1.2990   -2.2500    0.0000 O   0  0  0  0  0  0  0  0  0  0  0  0
   -6.4950    2.2500    0.0000 Cl  0  0  0  0  0  0  0  0  0  0  0  0
    7.7940   -3.0000    0.0000 O   0  0  0  0  0  0  0  0  0  0  0  0
    9.0930   -2.2500    0.0000 C   0  0  0  0  0  0  0  0  0  0  0  0
  1  2  1  0  0  0  0
  2  3  1  0  0  0  0
  2  7  2  0  0  0  0
  3  4  2  0  0  0  0
  4  5  1  0  0  0  0
  4 26  1  0  0  0  0
  5  6  2  0  0  0  0
  6  7  1  0  0  0  0
  7  8  1  0  0  0  0
  8  9  1  0  0  0  0
  8 15  1  0  0  0  0
  9 10  2  0  0  0  0
  9 11  1  0  0  0  0
 11 12  2  0  0  0  0
 11 23  1  0  0  0  0
 12 13  1  0  0  0  0
 12 16  1  0  0  0  0
 13 14  2  0  0  0  0
 13 15  1  0  0  0  0
 16 17  1  0  0  0  0
 17 18  1  0  0  0  0
 17 22  2  0  0  0  0
 18 19  2  0  0  0  0
 19 20  1  0  0  0  0
 19 25  1  0  0  0  0
 20 21  2  0  0  0  0
 21 22  1  0  0  0  0
 22 23  1  0  0  0  0
 23 24  2  0  0  0  0
 26 27  1  0  0  0  0
M  END
>  <n>
620

>  <SMILES>
Clc1cc2NC3=C(C(=O)c2cc1)C(=O)N(NC3=O)c1ccc(OC)cc1C

>  <IC50>
490

>  <Class>
0

>  <NAME>
ZD-9379

>  <INCHI_KEY>
PSTDMIAVUUYOOQ-UHFFFAOYSA-N

>  <Reference>
Mitigating the inhibition of human Bile Salt Export Pump by drugs_ opportunities provided by physicochemical property modulation,  in-silico modeling and structural modification_SI

$$$$
mol621
  MOE2013           2D

 33 35  0  0  1  0  0  0  0  0999 V2000
    1.2990   -0.7500    0.0000 C   0  0  0  0  0  0  0  0  0  0  0  0
    0.0000    0.0000    0.0000 C   0  0  0  0  0  0  0  0  0  0  0  0
    0.0000    1.5000    0.0000 C   0  0  0  0  0  0  0  0  0  0  0  0
   -1.2990    2.2500    0.0000 C   0  0  0  0  0  0  0  0  0  0  0  0
   -2.5980    1.5000    0.0000 C   0  0  0  0  0  0  0  0  0  0  0  0
   -2.5980    0.0000    0.0000 C   0  0  0  0  0  0  0  0  0  0  0  0
   -1.2990   -0.7500    0.0000 C   0  0  0  0  0  0  0  0  0  0  0  0
   -3.8970   -0.7500    0.0000 C   0  0  0  0  0  0  0  0  0  0  0  0
   -5.1960   -1.5000    0.0000 N   0  0  0  0  0  0  0  0  0  0  0  0
   -3.8970    2.2500    0.0000 O   0  0  0  0  0  0  0  0  0  0  0  0
   -3.8970    3.7500    0.0000 C   0  0  0  0  0  0  0  0  0  0  0  0
   -2.4200    3.4900    0.0000 C   0  0  0  0  0  0  0  0  0  0  0  0
   -3.3840    5.1600    0.0000 C   0  0  0  0  0  0  0  0  0  0  0  0
   -5.1960    4.5000    0.0000 C   0  0  3  0  0  0  0  0  0  0  0  0
   -5.1960    6.0000    0.0000 O   0  0  0  0  0  0  0  0  0  0  0  0
   -6.4950    6.7500    0.0000 C   0  0  0  0  0  0  0  0  0  0  0  0
   -7.7940    6.0000    0.0000 C   0  0  3  0  0  0  0  0  0  0  0  0
   -7.7940    4.5000    0.0000 C   0  0  3  0  0  0  0  0  0  0  0  0
   -6.4950    3.7500    0.0000 O   0  0  0  0  0  0  0  0  0  0  0  0
   -9.0930    3.7500    0.0000 C   0  0  0  0  0  0  0  0  0  0  0  0
  -10.3920    4.5000    0.0000 C   0  0  0  0  0  0  0  0  0  0  0  0
  -11.6910    3.7500    0.0000 C   0  0  0  0  0  0  0  0  0  0  0  0
  -11.6910    2.2500    0.0000 C   0  0  0  0  0  0  0  0  0  0  0  0
  -10.3920    1.5000    0.0000 N   0  0  0  0  0  0  0  0  0  0  0  0
   -9.0930    2.2500    0.0000 C   0  0  0  0  0  0  0  0  0  0  0  0
   -9.0930    6.7500    0.0000 C   0  0  0  0  0  0  0  0  0  0  0  0
   -9.0930    8.2500    0.0000 C   0  0  0  0  0  0  0  0  0  0  0  0
  -10.3920    9.0000    0.0000 C   0  0  0  0  0  0  0  0  0  0  0  0
  -11.6910    8.2500    0.0000 C   0  0  0  0  0  0  0  0  0  0  0  0
  -12.9900    9.0000    0.0000 C   0  0  0  0  0  0  0  0  0  0  0  0
  -14.2890    8.2500    0.0000 C   0  0  0  0  0  0  0  0  0  0  0  0
  -15.5880    9.0000    0.0000 O   0  0  0  0  0  0  0  0  0  0  0  0
  -14.2890    6.7500    0.0000 O   0  0  0  0  0  0  0  0  0  0  0  0
  1  2  1  0  0  0  0
  2  3  2  0  0  0  0
  2  7  1  0  0  0  0
  3  4  1  0  0  0  0
  4  5  2  0  0  0  0
  5  6  1  0  0  0  0
  5 10  1  0  0  0  0
  6  7  2  0  0  0  0
  6  8  1  0  0  0  0
  8  9  3  0  0  0  0
 10 11  1  0  0  0  0
 11 12  1  0  0  0  0
 11 13  1  0  0  0  0
 11 14  1  0  0  0  0
 14 15  1  0  0  0  0
 14 19  1  0  0  0  0
 15 16  1  0  0  0  0
 16 17  1  0  0  0  0
 17 18  1  0  0  0  0
 17 26  1  0  0  0  0
 18 19  1  0  0  0  0
 18 20  1  0  0  0  0
 20 21  1  0  0  0  0
 20 25  2  0  0  0  0
 21 22  2  0  0  0  0
 22 23  1  0  0  0  0
 23 24  2  0  0  0  0
 24 25  1  0  0  0  0
 26 27  1  0  0  0  0
 27 28  2  0  0  0  0
 28 29  1  0  0  0  0
 29 30  1  0  0  0  0
 30 31  1  0  0  0  0
 31 32  2  0  0  0  0
 31 33  1  0  0  0  0
M  END
>  <n>
621

>  <SMILES>
O1[C@@H]([C@@H](CO[C@@H]1C(Oc1ccc(cc1C#N)C)(C)C)C\C=C/CCC(O)=O)c1cccnc1

>  <IC50>
<10

>  <Class>
1

>  <NAME>
ZD-9583

>  <INCHI_KEY>
ZFOIWGFSCMNLFS-LDQXDPCPSA-N

>  <Reference>
Mitigating the inhibition of human Bile Salt Export Pump by drugs_ opportunities provided by physicochemical property modulation,  in-silico modeling and structural modification_SI

$$$$
ZILEUTON
  MOE2013           2D

 16 17  0  0  1  0  0  0  0  0999 V2000
    1.0570   -2.3740    0.0000 C   0  0  0  0  0  0  0  0  0  0  0  0
    1.2140   -0.8820    0.0000 C   0  0  3  0  0  0  0  0  0  0  0  0
    0.0000    0.0000    0.0000 C   0  0  0  0  0  0  0  0  0  0  0  0
    0.0000    1.5000    0.0000 C   0  0  0  0  0  0  0  0  0  0  0  0
   -1.4270    1.9640    0.0000 C   0  0  0  0  0  0  0  0  0  0  0  0
   -2.0370    3.3340    0.0000 C   0  0  0  0  0  0  0  0  0  0  0  0
   -3.5280    3.4910    0.0000 C   0  0  0  0  0  0  0  0  0  0  0  0
   -4.4100    2.2770    0.0000 C   0  0  0  0  0  0  0  0  0  0  0  0
   -3.8000    0.9070    0.0000 C   0  0  0  0  0  0  0  0  0  0  0  0
   -2.3080    0.7500    0.0000 C   0  0  0  0  0  0  0  0  0  0  0  0
   -1.4270   -0.4640    0.0000 S   0  0  0  0  0  0  0  0  0  0  0  0
    2.5840   -0.2720    0.0000 N   0  0  0  0  0  0  0  0  0  0  0  0
    3.7970   -1.1530    0.0000 C   0  0  0  0  0  0  0  0  0  0  0  0
    5.1680   -0.5430    0.0000 O   0  0  0  0  0  0  0  0  0  0  0  0
    3.6410   -2.6450    0.0000 N   0  0  0  0  0  0  0  0  0  0  0  0
    2.7410    1.2200    0.0000 O   0  0  0  0  0  0  0  0  0  0  0  0
  1  2  1  0  0  0  0
  2  3  1  0  0  0  0
  2 12  1  0  0  0  0
  3  4  2  0  0  0  0
  3 11  1  0  0  0  0
  4  5  1  0  0  0  0
  5  6  1  0  0  0  0
  5 10  2  0  0  0  0
  6  7  2  0  0  0  0
  7  8  1  0  0  0  0
  8  9  2  0  0  0  0
  9 10  1  0  0  0  0
 10 11  1  0  0  0  0
 12 13  1  0  0  0  0
 12 16  1  0  0  0  0
 13 14  2  0  0  0  0
 13 15  1  0  0  0  0
M  END
>  <n>
622

>  <SMILES>
s1c2c(cc1C(N(O)C(=O)N)C)cccc2

>  <IC50>
>751.2

>  <Class>
0

>  <NAME>
ZILEUTON

>  <INCHI_KEY>
MWLSOWXNZPKENC-UHFFFAOYSA-N

>  <Reference>
Mitigating the inhibition of human Bile Salt Export Pump by drugs_ opportunities provided by physicochemical property modulation,  in-silico modeling and structural modification_SI

$$$$
ZIMELDINE
  MOE2013           2D

 19 20  0  0  0  0  0  0  0  0999 V2000
    3.8970   -5.2500    0.0000 C   0  0  0  0  0  0  0  0  0  0  0  0
    2.5980   -4.5000    0.0000 N   0  0  0  0  0  0  0  0  0  0  0  0
    1.2990   -5.2500    0.0000 C   0  0  0  0  0  0  0  0  0  0  0  0
    2.5980   -3.0000    0.0000 C   0  0  0  0  0  0  0  0  0  0  0  0
    1.2990   -2.2500    0.0000 C   0  0  0  0  0  0  0  0  0  0  0  0
    1.2990   -0.7500    0.0000 C   0  0  0  0  0  0  0  0  0  0  0  0
    0.0000    0.0000    0.0000 C   0  0  0  0  0  0  0  0  0  0  0  0
    0.0000    1.5000    0.0000 C   0  0  0  0  0  0  0  0  0  0  0  0
   -1.2990    2.2500    0.0000 C   0  0  0  0  0  0  0  0  0  0  0  0
   -2.5980    1.5000    0.0000 C   0  0  0  0  0  0  0  0  0  0  0  0
   -2.5980    0.0000    0.0000 C   0  0  0  0  0  0  0  0  0  0  0  0
   -1.2990   -0.7500    0.0000 C   0  0  0  0  0  0  0  0  0  0  0  0
   -3.8970    2.2500    0.0000 Br  0  0  0  0  0  0  0  0  0  0  0  0
    2.5980    0.0000    0.0000 C   0  0  0  0  0  0  0  0  0  0  0  0
    3.8970   -0.7500    0.0000 C   0  0  0  0  0  0  0  0  0  0  0  0
    5.1960    0.0000    0.0000 C   0  0  0  0  0  0  0  0  0  0  0  0
    5.1960    1.5000    0.0000 C   0  0  0  0  0  0  0  0  0  0  0  0
    3.8970    2.2500    0.0000 N   0  0  0  0  0  0  0  0  0  0  0  0
    2.5980    1.5000    0.0000 C   0  0  0  0  0  0  0  0  0  0  0  0
  1  2  1  0  0  0  0
  2  3  1  0  0  0  0
  2  4  1  0  0  0  0
  4  5  1  0  0  0  0
  5  6  2  0  0  0  0
  6  7  1  0  0  0  0
  6 14  1  0  0  0  0
  7  8  1  0  0  0  0
  7 12  2  0  0  0  0
  8  9  2  0  0  0  0
  9 10  1  0  0  0  0
 10 11  2  0  0  0  0
 10 13  1  0  0  0  0
 11 12  1  0  0  0  0
 14 15  1  0  0  0  0
 14 19  2  0  0  0  0
 15 16  2  0  0  0  0
 16 17  1  0  0  0  0
 17 18  2  0  0  0  0
 18 19  1  0  0  0  0
M  END
>  <n>
623

>  <SMILES>
Brc1ccc(cc1)\C(=C\CN(C)C)\c1cccnc1

>  <IC50>
229.7

>  <Class>
0

>  <NAME>
ZIMELDINE

>  <INCHI_KEY>
OYPPVKRFBIWMSX-SXGWCWSVSA-N

>  <Reference>
Mitigating the inhibition of human Bile Salt Export Pump by drugs_ opportunities provided by physicochemical property modulation,  in-silico modeling and structural modification_SI

$$$$
ZOXAZOLAMINE
  MOE2013           2D

 11 12  0  0  0  0  0  0  0  0999 V2000
    2.5980    0.0000    0.0000 C   0  0  0  0  0  0  0  0  0  0  0  0
    1.2990   -0.7500    0.0000 C   0  0  0  0  0  0  0  0  0  0  0  0
    0.0000    0.0000    0.0000 C   0  0  0  0  0  0  0  0  0  0  0  0
    0.0000    1.5000    0.0000 C   0  0  0  0  0  0  0  0  0  0  0  0
    1.2990    2.2500    0.0000 C   0  0  0  0  0  0  0  0  0  0  0  0
    2.5980    1.5000    0.0000 C   0  0  0  0  0  0  0  0  0  0  0  0
    3.8970    2.2500    0.0000 Cl  0  0  0  0  0  0  0  0  0  0  0  0
   -1.4270    1.9640    0.0000 N   0  0  0  0  0  0  0  0  0  0  0  0
   -2.3080    0.7500    0.0000 C   0  0  0  0  0  0  0  0  0  0  0  0
   -1.4270   -0.4640    0.0000 O   0  0  0  0  0  0  0  0  0  0  0  0
   -3.8080    0.7500    0.0000 N   0  0  0  0  0  0  0  0  0  0  0  0
  1  2  1  0  0  0  0
  1  6  2  0  0  0  0
  2  3  2  0  0  0  0
  3  4  1  0  0  0  0
  3 10  1  0  0  0  0
  4  5  2  0  0  0  0
  4  8  1  0  0  0  0
  5  6  1  0  0  0  0
  6  7  1  0  0  0  0
  8  9  2  0  0  0  0
  9 10  1  0  0  0  0
  9 11  1  0  0  0  0
M  END
>  <n>
624

>  <SMILES>
Clc1cc2nc(oc2cc1)N

>  <IC50>
>1000

>  <Class>
0

>  <NAME>
ZOXAZOLAMINE

>  <INCHI_KEY>
YGCODSQDUUUKIV-UHFFFAOYSA-N

>  <Reference>
Mitigating the inhibition of human Bile Salt Export Pump by drugs_ opportunities provided by physicochemical property modulation,  in-silico modeling and structural modification_SI

$$$$
